<?xml version="1.0" encoding="UTF-8"?>

<!-- generated on Mon Nov 19 19:13:21 2018 by Netedit Version 0.30.0
<?xml version="1.0" encoding="UTF-8"?>

<configuration xmlns:xsi="http://www.w3.org/2001/XMLSchema-instance" xsi:noNamespaceSchemaLocation="http://sumo.dlr.de/xsd/netconvertConfiguration.xsd">

    <input>
        <sumo-net-file value="/Users/lorenzocesconetto/PyCharmProjects/sumo-tfc/src/spider/spider.net.xml"/>
    </input>

    <output>
        <output-file value="/Users/lorenzocesconetto/PyCharmProjects/sumo-tfc/src/spider_test/spider_test_2.net.xml"/>
    </output>

    <processing>
        <no-turnarounds value="true"/>
        <offset.disable-normalization value="true"/>
        <lefthand value="false"/>
        <junctions.corner-detail value="0"/>
        <rectangular-lane-cut value="false"/>
    </processing>

</configuration>
-->

<net version="0.27" xmlns:xsi="http://www.w3.org/2001/XMLSchema-instance" xsi:noNamespaceSchemaLocation="http://sumo.dlr.de/xsd/net_file.xsd">

    <location netOffset="100.00,100.00" convBoundary="-100.00,-100.00,300.00,300.00" origBoundary="-100.00,-100.00,100.00,100.00" projParameter="!"/>

    <edge id=":1/1_0" function="internal">
        <lane id=":1/1_0_0" index="0" speed="13.89" length="5.79" shape="205.04,101.65 203.26,101.80 201.84,102.24 200.80,102.99 200.12,104.02"/>
    </edge>
    <edge id=":1/1_1" function="internal">
        <lane id=":1/1_1_0" index="0" speed="13.90" length="6.21" shape="200.96,98.00 201.22,99.13 201.16,100.51 200.80,102.14 200.12,104.02"/>
    </edge>
    <edge id=":2/1_0" function="internal">
        <lane id=":2/1_0_0" index="0" speed="13.89" length="5.79" shape="173.64,167.95 173.38,169.16 173.60,170.43 174.28,171.74 175.44,173.11"/>
    </edge>
    <edge id=":2/1_1" function="internal">
        <lane id=":2/1_1_0" index="0" speed="13.90" length="6.37" shape="173.64,167.95 172.97,169.73 172.42,170.99 171.57,171.95 169.97,172.80"/>
    </edge>
    <edge id=":3/1_0" function="internal">
        <lane id=":3/1_0_0" index="0" speed="13.89" length="5.79" shape="98.35,205.04 98.20,203.26 97.76,201.84 97.01,200.80 95.98,200.12"/>
    </edge>
    <edge id=":3/1_1" function="internal">
        <lane id=":3/1_1_0" index="0" speed="13.90" length="6.21" shape="102.00,200.96 100.87,201.22 99.49,201.16 97.86,200.80 95.98,200.12"/>
    </edge>
    <edge id=":4/1_0" function="internal">
        <lane id=":4/1_0_0" index="0" speed="13.89" length="5.79" shape="32.05,173.64 30.84,173.38 29.57,173.60 28.26,174.28 26.89,175.44"/>
    </edge>
    <edge id=":4/1_1" function="internal">
        <lane id=":4/1_1_0" index="0" speed="13.90" length="6.37" shape="32.05,173.64 30.27,172.97 29.01,172.42 28.05,171.57 27.20,169.97"/>
    </edge>
    <edge id=":5/1_0" function="internal">
        <lane id=":5/1_0_0" index="0" speed="13.90" length="6.21" shape="-0.96,102.00 -1.22,100.87 -1.16,99.49 -0.80,97.86 -0.12,95.98"/>
    </edge>
    <edge id=":5/1_1" function="internal">
        <lane id=":5/1_1_0" index="0" speed="13.89" length="5.79" shape="-5.04,98.35 -3.26,98.20 -1.84,97.76 -0.80,97.01 -0.12,95.98"/>
    </edge>
    <edge id=":6/1_0" function="internal">
        <lane id=":6/1_0_0" index="0" speed="13.89" length="5.79" shape="26.36,32.05 26.62,30.84 26.40,29.57 25.72,28.26 24.56,26.89"/>
    </edge>
    <edge id=":6/1_1" function="internal">
        <lane id=":6/1_1_0" index="0" speed="13.90" length="6.37" shape="26.36,32.05 27.03,30.27 27.58,29.01 28.43,28.05 30.03,27.20"/>
    </edge>
    <edge id=":7/1_0" function="internal">
        <lane id=":7/1_0_0" index="0" speed="13.89" length="5.79" shape="101.65,-5.04 101.80,-3.26 102.24,-1.84 102.99,-0.80 104.02,-0.12"/>
    </edge>
    <edge id=":7/1_1" function="internal">
        <lane id=":7/1_1_0" index="0" speed="13.90" length="6.21" shape="98.00,-0.96 99.13,-1.22 100.51,-1.16 102.14,-0.80 104.02,-0.12"/>
    </edge>
    <edge id=":8/1_0" function="internal">
        <lane id=":8/1_0_0" index="0" speed="13.89" length="5.79" shape="167.95,26.36 169.16,26.62 170.43,26.40 171.74,25.72 173.11,24.56"/>
    </edge>
    <edge id=":8/1_1" function="internal">
        <lane id=":8/1_1_0" index="0" speed="13.90" length="6.37" shape="167.95,26.36 169.73,27.03 170.99,27.58 171.95,28.43 172.80,30.03"/>
    </edge>

    <edge id="1/1to2/1" from="1/1" to="2/1" priority="-1">
        <lane id="1/1to2/1_0" index="0" speed="13.90" length="69.19" shape="200.12,104.02 173.64,167.95"/>
    </edge>
    <edge id="2/1to3/1" from="2/1" to="3/1" priority="-1">
        <lane id="2/1to3/1_0" index="0" speed="13.90" length="73.58" shape="169.97,172.80 102.00,200.96"/>
    </edge>
    <edge id="3/1to4/1" from="3/1" to="4/1" priority="-1">
        <lane id="3/1to4/1_0" index="0" speed="13.90" length="69.19" shape="95.98,200.12 32.05,173.64"/>
    </edge>
    <edge id="4/1to5/1" from="4/1" to="5/1" priority="-1">
        <lane id="4/1to5/1_0" index="0" speed="13.90" length="73.58" shape="27.20,169.97 -0.96,102.00"/>
    </edge>
    <edge id="5/1to6/1" from="5/1" to="6/1" priority="-1">
        <lane id="5/1to6/1_0" index="0" speed="13.90" length="69.19" shape="-0.12,95.98 26.36,32.05"/>
    </edge>
    <edge id="6/1to7/1" from="6/1" to="7/1" priority="-1">
        <lane id="6/1to7/1_0" index="0" speed="13.90" length="73.58" shape="30.03,27.20 98.00,-0.96"/>
    </edge>
    <edge id="7/1to8/1" from="7/1" to="8/1" priority="-1">
        <lane id="7/1to8/1_0" index="0" speed="13.90" length="69.19" shape="104.02,-0.12 167.95,26.36"/>
    </edge>
    <edge id="8/1to1/1" from="8/1" to="1/1" priority="-1">
        <lane id="8/1to1/1_0" index="0" speed="13.90" length="73.58" shape="172.80,30.03 200.96,98.00"/>
    </edge>
    <edge id="gneE0" from="gneJ0" to="5/1" priority="1">
        <lane id="gneE0_0" index="0" speed="13.89" length="94.96" shape="-100.00,98.35 -5.04,98.35"/>
    </edge>
    <edge id="gneE1" from="gneJ1" to="1/1" priority="1">
        <lane id="gneE1_0" index="0" speed="13.89" length="94.96" shape="300.00,101.65 205.04,101.65"/>
    </edge>
    <edge id="gneE11" from="6/1" to="gneJ4" priority="1">
        <lane id="gneE11_0" index="0" speed="13.89" length="107.09" shape="24.56,26.89 -51.17,-48.83"/>
    </edge>
    <edge id="gneE12" from="8/1" to="gneJ7" priority="1">
        <lane id="gneE12_0" index="0" speed="13.89" length="107.09" shape="173.11,24.56 248.83,-51.17"/>
    </edge>
    <edge id="gneE2" from="gneJ2" to="3/1" priority="1">
        <lane id="gneE2_0" index="0" speed="13.89" length="94.96" shape="98.35,300.00 98.35,205.04"/>
    </edge>
    <edge id="gneE3" from="gneJ3" to="7/1" priority="1">
        <lane id="gneE3_0" index="0" speed="13.89" length="94.96" shape="101.65,-100.00 101.65,-5.04"/>
    </edge>
    <edge id="gneE8" from="4/1" to="gneJ5" priority="1">
        <lane id="gneE8_0" index="0" speed="13.89" length="107.09" shape="26.89,175.44 -48.83,251.17"/>
    </edge>
    <edge id="gneE9" from="2/1" to="gneJ6" priority="1">
        <lane id="gneE9_0" index="0" speed="13.89" length="107.09" shape="175.44,173.11 251.17,248.83"/>
    </edge>

    <tlLogic id="1/1" type="static" programID="0" offset="0">
        <phase duration="41" state="Gr"/>
        <phase duration="4" state="yr"/>
        <phase duration="41" state="rG"/>
        <phase duration="4" state="ry"/>
    </tlLogic>
    <tlLogic id="3/1" type="static" programID="0" offset="0">
        <phase duration="41" state="Gr"/>
        <phase duration="4" state="yr"/>
        <phase duration="41" state="rG"/>
        <phase duration="4" state="ry"/>
    </tlLogic>
    <tlLogic id="5/1" type="static" programID="0" offset="0">
        <phase duration="41" state="Gr"/>
        <phase duration="4" state="yr"/>
        <phase duration="41" state="rG"/>
        <phase duration="4" state="ry"/>
    </tlLogic>
    <tlLogic id="7/1" type="static" programID="0" offset="0">
        <phase duration="41" state="Gr"/>
        <phase duration="4" state="yr"/>
        <phase duration="41" state="rG"/>
        <phase duration="4" state="ry"/>
    </tlLogic>

    <junction id="1/1" type="traffic_light" x="200.00" y="100.00" incLanes="gneE1_0 8/1to1/1_0" intLanes=":1/1_0_0 :1/1_1_0" shape="205.04,103.25 205.04,100.05 202.44,97.39 199.48,98.61 198.64,103.41 201.60,104.64">
        <request index="0" response="00" foes="10" cont="0"/>
        <request index="1" response="01" foes="01" cont="0"/>
    </junction>
    <junction id="2/1" type="priority" x="170.71" y="170.71" incLanes="1/1to2/1_0" intLanes=":2/1_0_0 :2/1_1_0" shape="174.31,174.24 176.57,171.97 175.12,168.56 172.16,167.34 169.36,171.32 170.59,174.28">
        <request index="0" response="00" foes="00" cont="0"/>
        <request index="1" response="00" foes="00" cont="0"/>
    </junction>
    <junction id="3/1" type="traffic_light" x="100.00" y="200.00" incLanes="gneE2_0 2/1to3/1_0" intLanes=":3/1_0_0 :3/1_1_0" shape="96.75,205.04 99.95,205.04 102.61,202.44 101.39,199.48 96.59,198.64 95.36,201.60">
        <request index="0" response="00" foes="10" cont="0"/>
        <request index="1" response="01" foes="01" cont="0"/>
    </junction>
    <junction id="4/1" type="priority" x="29.29" y="170.71" incLanes="3/1to4/1_0" intLanes=":4/1_0_0 :4/1_1_0" shape="31.44,175.12 32.66,172.16 28.68,169.36 25.72,170.59 25.76,174.31 28.03,176.57">
        <request index="0" response="00" foes="00" cont="0"/>
        <request index="1" response="00" foes="00" cont="0"/>
    </junction>
    <junction id="5/1" type="traffic_light" x="0.00" y="100.00" incLanes="4/1to5/1_0 gneE0_0" intLanes=":5/1_0_0 :5/1_1_0" shape="-2.44,102.61 0.52,101.39 1.36,96.59 -1.60,95.36 -5.04,96.75 -5.04,99.95">
        <request index="0" response="10" foes="10" cont="0"/>
        <request index="1" response="00" foes="01" cont="0"/>
    </junction>
    <junction id="6/1" type="priority" x="29.29" y="29.29" incLanes="5/1to6/1_0" intLanes=":6/1_0_0 :6/1_1_0" shape="30.64,28.68 29.41,25.72 25.69,25.76 23.43,28.03 24.88,31.44 27.84,32.66">
        <request index="0" response="00" foes="00" cont="0"/>
        <request index="1" response="00" foes="00" cont="0"/>
    </junction>
    <junction id="7/1" type="traffic_light" x="100.00" y="0.00" incLanes="gneE3_0 6/1to7/1_0" intLanes=":7/1_0_0 :7/1_1_0" shape="103.41,1.36 104.64,-1.60 103.25,-5.04 100.05,-5.04 97.39,-2.44 98.61,0.52">
        <request index="0" response="00" foes="10" cont="0"/>
        <request index="1" response="01" foes="01" cont="0"/>
    </junction>
    <junction id="8/1" type="priority" x="170.71" y="29.29" incLanes="7/1to8/1_0" intLanes=":8/1_0_0 :8/1_1_0" shape="171.32,30.64 174.28,29.41 174.24,25.69 171.97,23.43 168.56,24.88 167.34,27.84">
        <request index="0" response="00" foes="00" cont="0"/>
        <request index="1" response="00" foes="00" cont="0"/>
    </junction>
    <junction id="gneJ0" type="dead_end" x="-100.00" y="100.00" incLanes="" intLanes="" shape="-100.00,99.95 -100.00,96.75"/>
    <junction id="gneJ1" type="dead_end" x="300.00" y="100.00" incLanes="" intLanes="" shape="300.00,100.05 300.00,103.25"/>
    <junction id="gneJ2" type="dead_end" x="100.00" y="300.00" incLanes="" intLanes="" shape="99.95,300.00 96.75,300.00"/>
    <junction id="gneJ3" type="dead_end" x="100.00" y="-100.00" incLanes="" intLanes="" shape="100.05,-100.00 103.25,-100.00"/>
    <junction id="gneJ4" type="dead_end" x="-50.00" y="-50.00" incLanes="gneE11_0" intLanes="" shape="-52.30,-47.70 -50.04,-49.96"/>
    <junction id="gneJ5" type="dead_end" x="-50.00" y="250.00" incLanes="gneE8_0" intLanes="" shape="-47.70,252.30 -49.96,250.04"/>
    <junction id="gneJ6" type="dead_end" x="250.00" y="250.00" incLanes="gneE9_0" intLanes="" shape="252.30,247.70 250.04,249.96"/>
    <junction id="gneJ7" type="dead_end" x="250.00" y="-50.00" incLanes="gneE12_0" intLanes="" shape="247.70,-52.30 249.96,-50.04"/>

    <connection from="1/1to2/1" to="gneE9" fromLane="0" toLane="0" via=":2/1_0_0" dir="r" state="M"/>
    <connection from="1/1to2/1" to="2/1to3/1" fromLane="0" toLane="0" via=":2/1_1_0" dir="l" state="M"/>
    <connection from="2/1to3/1" to="3/1to4/1" fromLane="0" toLane="0" via=":3/1_1_0" tl="3/1" linkIndex="1" dir="l" state="o"/>
    <connection from="3/1to4/1" to="gneE8" fromLane="0" toLane="0" via=":4/1_0_0" dir="r" state="M"/>
    <connection from="3/1to4/1" to="4/1to5/1" fromLane="0" toLane="0" via=":4/1_1_0" dir="l" state="M"/>
    <connection from="4/1to5/1" to="5/1to6/1" fromLane="0" toLane="0" via=":5/1_0_0" tl="5/1" linkIndex="0" dir="l" state="o"/>
    <connection from="5/1to6/1" to="gneE11" fromLane="0" toLane="0" via=":6/1_0_0" dir="r" state="M"/>
    <connection from="5/1to6/1" to="6/1to7/1" fromLane="0" toLane="0" via=":6/1_1_0" dir="l" state="M"/>
    <connection from="6/1to7/1" to="7/1to8/1" fromLane="0" toLane="0" via=":7/1_1_0" tl="7/1" linkIndex="1" dir="l" state="o"/>
    <connection from="7/1to8/1" to="gneE12" fromLane="0" toLane="0" via=":8/1_0_0" dir="r" state="M"/>
    <connection from="7/1to8/1" to="8/1to1/1" fromLane="0" toLane="0" via=":8/1_1_0" dir="l" state="M"/>
    <connection from="8/1to1/1" to="1/1to2/1" fromLane="0" toLane="0" via=":1/1_1_0" tl="1/1" linkIndex="1" dir="l" state="o"/>
    <connection from="gneE0" to="5/1to6/1" fromLane="0" toLane="0" via=":5/1_1_0" tl="5/1" linkIndex="1" dir="r" state="o"/>
    <connection from="gneE1" to="1/1to2/1" fromLane="0" toLane="0" via=":1/1_0_0" tl="1/1" linkIndex="0" dir="r" state="o"/>
    <connection from="gneE2" to="3/1to4/1" fromLane="0" toLane="0" via=":3/1_0_0" tl="3/1" linkIndex="0" dir="r" state="o"/>
    <connection from="gneE3" to="7/1to8/1" fromLane="0" toLane="0" via=":7/1_0_0" tl="7/1" linkIndex="0" dir="r" state="o"/>

    <connection from=":1/1_0" to="1/1to2/1" fromLane="0" toLane="0" dir="s" state="M"/>
    <connection from=":1/1_1" to="1/1to2/1" fromLane="0" toLane="0" dir="s" state="M"/>
    <connection from=":2/1_0" to="gneE9" fromLane="0" toLane="0" dir="s" state="M"/>
    <connection from=":2/1_1" to="2/1to3/1" fromLane="0" toLane="0" dir="s" state="M"/>
    <connection from=":3/1_0" to="3/1to4/1" fromLane="0" toLane="0" dir="s" state="M"/>
    <connection from=":3/1_1" to="3/1to4/1" fromLane="0" toLane="0" dir="s" state="M"/>
    <connection from=":4/1_0" to="gneE8" fromLane="0" toLane="0" dir="s" state="M"/>
    <connection from=":4/1_1" to="4/1to5/1" fromLane="0" toLane="0" dir="s" state="M"/>
    <connection from=":5/1_0" to="5/1to6/1" fromLane="0" toLane="0" dir="s" state="M"/>
    <connection from=":5/1_1" to="5/1to6/1" fromLane="0" toLane="0" dir="s" state="M"/>
    <connection from=":6/1_0" to="gneE11" fromLane="0" toLane="0" dir="s" state="M"/>
    <connection from=":6/1_1" to="6/1to7/1" fromLane="0" toLane="0" dir="s" state="M"/>
    <connection from=":7/1_0" to="7/1to8/1" fromLane="0" toLane="0" dir="s" state="M"/>
    <connection from=":7/1_1" to="7/1to8/1" fromLane="0" toLane="0" dir="s" state="M"/>
    <connection from=":8/1_0" to="gneE12" fromLane="0" toLane="0" dir="s" state="M"/>
    <connection from=":8/1_1" to="8/1to1/1" fromLane="0" toLane="0" dir="s" state="M"/>

</net>
