<?xml version="1.0" encoding="UTF-8"?>

<!-- generated on Sun May  6 21:31:32 2018 by SUMO duarouter Version 0.30.0
<?xml version="1.0" encoding="UTF-8"?>

<configuration xmlns:xsi="http://www.w3.org/2001/XMLSchema-instance" xsi:noNamespaceSchemaLocation="http://sumo.dlr.de/xsd/duarouterConfiguration.xsd">

    <input>
        <net-file value="cross/cross.net.xml"/>
        <route-files value="trips.trips.xml"/>
    </input>

    <output>
        <output-file value="cross/route/cross-2.4-4.rou.xml"/>
    </output>

    <processing>
        <ignore-errors value="true"/>
    </processing>

    <time>
        <begin value="0.0"/>
        <end value="1000.0"/>
    </time>

    <report>
        <no-warnings value="true"/>
        <no-step-log value="true"/>
    </report>

</configuration>
-->

<routes xmlns:xsi="http://www.w3.org/2001/XMLSchema-instance" xsi:noNamespaceSchemaLocation="http://sumo.dlr.de/xsd/routes_file.xsd">
    <vehicle id="0" depart="0.00">
        <route edges="-gneE6 -gneE3"/>
    </vehicle>
    <vehicle id="1" depart="2.40">
        <route edges="-gneE4 -gneE2"/>
    </vehicle>
    <vehicle id="2" depart="4.80">
        <route edges="-gneE6 -gneE2"/>
    </vehicle>
    <vehicle id="4" depart="9.60">
        <route edges="gneE2 -gneE3"/>
    </vehicle>
    <vehicle id="5" depart="12.00">
        <route edges="-gneE6 -gneE2"/>
    </vehicle>
    <vehicle id="6" depart="14.40">
        <route edges="gneE2 -gneE3"/>
    </vehicle>
    <vehicle id="7" depart="16.80">
        <route edges="-gneE4 -gneE3"/>
    </vehicle>
    <vehicle id="9" depart="21.60">
        <route edges="gneE2 gneE6"/>
    </vehicle>
    <vehicle id="11" depart="26.40">
        <route edges="gneE3 -gneE2"/>
    </vehicle>
    <vehicle id="14" depart="33.60">
        <route edges="-gneE4 gneE6"/>
    </vehicle>
    <vehicle id="15" depart="36.00">
        <route edges="-gneE6 gneE4"/>
    </vehicle>
    <vehicle id="16" depart="38.40">
        <route edges="-gneE4 -gneE3"/>
    </vehicle>
    <vehicle id="18" depart="43.20">
        <route edges="-gneE6 -gneE2"/>
    </vehicle>
    <vehicle id="20" depart="48.00">
        <route edges="gneE3 -gneE2"/>
    </vehicle>
    <vehicle id="21" depart="50.40">
        <route edges="-gneE4 -gneE2"/>
    </vehicle>
    <vehicle id="22" depart="52.80">
        <route edges="-gneE6 -gneE3"/>
    </vehicle>
    <vehicle id="23" depart="55.20">
        <route edges="gneE3 -gneE2"/>
    </vehicle>
    <vehicle id="26" depart="62.40">
        <route edges="gneE3 gneE4"/>
    </vehicle>
    <vehicle id="27" depart="64.80">
        <route edges="-gneE4 -gneE2"/>
    </vehicle>
    <vehicle id="28" depart="67.20">
        <route edges="-gneE6 -gneE3"/>
    </vehicle>
    <vehicle id="29" depart="69.60">
        <route edges="gneE3 gneE4"/>
    </vehicle>
    <vehicle id="30" depart="72.00">
        <route edges="-gneE6 -gneE2"/>
    </vehicle>
    <vehicle id="31" depart="74.40">
        <route edges="gneE3 gneE6"/>
    </vehicle>
    <vehicle id="32" depart="76.80">
        <route edges="-gneE6 gneE4"/>
    </vehicle>
    <vehicle id="34" depart="81.60">
        <route edges="-gneE4 -gneE2"/>
    </vehicle>
    <vehicle id="36" depart="86.40">
        <route edges="gneE3 gneE4"/>
    </vehicle>
    <vehicle id="37" depart="88.80">
        <route edges="gneE2 -gneE3"/>
    </vehicle>
    <vehicle id="39" depart="93.60">
        <route edges="gneE2 gneE6"/>
    </vehicle>
    <vehicle id="40" depart="96.00">
        <route edges="-gneE6 -gneE3"/>
    </vehicle>
    <vehicle id="41" depart="98.40">
        <route edges="-gneE4 -gneE2"/>
    </vehicle>
    <vehicle id="42" depart="100.80">
        <route edges="gneE3 gneE6"/>
    </vehicle>
    <vehicle id="44" depart="105.60">
        <route edges="gneE2 -gneE3"/>
    </vehicle>
    <vehicle id="46" depart="110.40">
        <route edges="-gneE6 -gneE2"/>
    </vehicle>
    <vehicle id="48" depart="115.20">
        <route edges="gneE3 gneE4"/>
    </vehicle>
    <vehicle id="50" depart="120.00">
        <route edges="-gneE6 -gneE2"/>
    </vehicle>
    <vehicle id="51" depart="122.40">
        <route edges="-gneE6 -gneE2"/>
    </vehicle>
    <vehicle id="53" depart="127.20">
        <route edges="-gneE6 gneE4"/>
    </vehicle>
    <vehicle id="55" depart="132.00">
        <route edges="gneE2 -gneE3"/>
    </vehicle>
    <vehicle id="57" depart="136.80">
        <route edges="gneE2 gneE4"/>
    </vehicle>
    <vehicle id="58" depart="139.20">
        <route edges="-gneE4 -gneE2"/>
    </vehicle>
    <vehicle id="60" depart="144.00">
        <route edges="gneE3 gneE6"/>
    </vehicle>
    <vehicle id="61" depart="146.40">
        <route edges="-gneE4 -gneE2"/>
    </vehicle>
    <vehicle id="65" depart="156.00">
        <route edges="gneE2 -gneE3"/>
    </vehicle>
    <vehicle id="66" depart="158.40">
        <route edges="gneE3 -gneE2"/>
    </vehicle>
    <vehicle id="67" depart="160.80">
        <route edges="gneE3 gneE4"/>
    </vehicle>
    <vehicle id="70" depart="168.00">
        <route edges="-gneE6 gneE4"/>
    </vehicle>
    <vehicle id="71" depart="170.40">
        <route edges="-gneE4 gneE6"/>
    </vehicle>
    <vehicle id="72" depart="172.80">
        <route edges="gneE2 -gneE3"/>
    </vehicle>
    <vehicle id="73" depart="175.20">
        <route edges="-gneE6 -gneE2"/>
    </vehicle>
    <vehicle id="74" depart="177.60">
        <route edges="gneE2 gneE4"/>
    </vehicle>
    <vehicle id="75" depart="180.00">
        <route edges="gneE3 -gneE2"/>
    </vehicle>
    <vehicle id="76" depart="182.40">
        <route edges="gneE2 -gneE3"/>
    </vehicle>
    <vehicle id="77" depart="184.80">
        <route edges="-gneE6 gneE4"/>
    </vehicle>
    <vehicle id="79" depart="189.60">
        <route edges="gneE3 gneE4"/>
    </vehicle>
    <vehicle id="80" depart="192.00">
        <route edges="-gneE6 gneE4"/>
    </vehicle>
    <vehicle id="85" depart="204.00">
        <route edges="-gneE6 gneE4"/>
    </vehicle>
    <vehicle id="86" depart="206.40">
        <route edges="-gneE6 -gneE3"/>
    </vehicle>
    <vehicle id="87" depart="208.80">
        <route edges="-gneE4 -gneE2"/>
    </vehicle>
    <vehicle id="88" depart="211.20">
        <route edges="gneE2 -gneE3"/>
    </vehicle>
    <vehicle id="89" depart="213.60">
        <route edges="-gneE4 -gneE3"/>
    </vehicle>
    <vehicle id="90" depart="216.00">
        <route edges="gneE3 gneE6"/>
    </vehicle>
    <vehicle id="91" depart="218.40">
        <route edges="gneE3 gneE6"/>
    </vehicle>
    <vehicle id="93" depart="223.20">
        <route edges="gneE2 -gneE3"/>
    </vehicle>
    <vehicle id="96" depart="230.40">
        <route edges="-gneE4 gneE6"/>
    </vehicle>
    <vehicle id="97" depart="232.80">
        <route edges="-gneE4 -gneE3"/>
    </vehicle>
    <vehicle id="98" depart="235.20">
        <route edges="gneE2 gneE4"/>
    </vehicle>
    <vehicle id="99" depart="237.60">
        <route edges="-gneE4 -gneE2"/>
    </vehicle>
    <vehicle id="101" depart="242.40">
        <route edges="-gneE6 -gneE2"/>
    </vehicle>
    <vehicle id="102" depart="244.80">
        <route edges="gneE3 -gneE2"/>
    </vehicle>
    <vehicle id="103" depart="247.20">
        <route edges="-gneE6 -gneE3"/>
    </vehicle>
    <vehicle id="105" depart="252.00">
        <route edges="gneE3 gneE6"/>
    </vehicle>
    <vehicle id="106" depart="254.40">
        <route edges="gneE2 gneE4"/>
    </vehicle>
    <vehicle id="107" depart="256.80">
        <route edges="-gneE4 -gneE2"/>
    </vehicle>
    <vehicle id="108" depart="259.20">
        <route edges="gneE2 gneE6"/>
    </vehicle>
    <vehicle id="109" depart="261.60">
        <route edges="gneE2 -gneE3"/>
    </vehicle>
    <vehicle id="110" depart="264.00">
        <route edges="-gneE6 -gneE2"/>
    </vehicle>
    <vehicle id="113" depart="271.20">
        <route edges="gneE3 gneE6"/>
    </vehicle>
    <vehicle id="114" depart="273.60">
        <route edges="-gneE6 gneE4"/>
    </vehicle>
    <vehicle id="115" depart="276.00">
        <route edges="gneE3 -gneE2"/>
    </vehicle>
    <vehicle id="116" depart="278.40">
        <route edges="-gneE4 gneE6"/>
    </vehicle>
    <vehicle id="117" depart="280.80">
        <route edges="gneE2 gneE4"/>
    </vehicle>
    <vehicle id="119" depart="285.60">
        <route edges="gneE2 gneE6"/>
    </vehicle>
    <vehicle id="120" depart="288.00">
        <route edges="gneE3 gneE4"/>
    </vehicle>
    <vehicle id="122" depart="292.80">
        <route edges="-gneE6 -gneE2"/>
    </vehicle>
    <vehicle id="123" depart="295.20">
        <route edges="gneE3 gneE4"/>
    </vehicle>
    <vehicle id="124" depart="297.60">
        <route edges="gneE3 -gneE2"/>
    </vehicle>
    <vehicle id="125" depart="300.00">
        <route edges="-gneE4 -gneE2"/>
    </vehicle>
    <vehicle id="126" depart="302.40">
        <route edges="-gneE4 -gneE2"/>
    </vehicle>
    <vehicle id="127" depart="304.80">
        <route edges="gneE3 -gneE2"/>
    </vehicle>
    <vehicle id="128" depart="307.20">
        <route edges="gneE2 -gneE3"/>
    </vehicle>
    <vehicle id="129" depart="309.60">
        <route edges="gneE3 gneE6"/>
    </vehicle>
    <vehicle id="130" depart="312.00">
        <route edges="gneE3 gneE4"/>
    </vehicle>
    <vehicle id="131" depart="314.40">
        <route edges="gneE3 gneE6"/>
    </vehicle>
    <vehicle id="132" depart="316.80">
        <route edges="gneE3 gneE4"/>
    </vehicle>
    <vehicle id="134" depart="321.60">
        <route edges="gneE3 gneE6"/>
    </vehicle>
    <vehicle id="135" depart="324.00">
        <route edges="-gneE4 -gneE2"/>
    </vehicle>
    <vehicle id="136" depart="326.40">
        <route edges="-gneE4 -gneE2"/>
    </vehicle>
    <vehicle id="137" depart="328.80">
        <route edges="-gneE4 -gneE2"/>
    </vehicle>
    <vehicle id="139" depart="333.60">
        <route edges="gneE3 gneE4"/>
    </vehicle>
    <vehicle id="141" depart="338.40">
        <route edges="-gneE4 gneE6"/>
    </vehicle>
    <vehicle id="142" depart="340.80">
        <route edges="gneE3 gneE6"/>
    </vehicle>
    <vehicle id="143" depart="343.20">
        <route edges="gneE3 -gneE2"/>
    </vehicle>
    <vehicle id="144" depart="345.60">
        <route edges="-gneE6 -gneE2"/>
    </vehicle>
    <vehicle id="147" depart="352.80">
        <route edges="-gneE4 gneE6"/>
    </vehicle>
    <vehicle id="148" depart="355.20">
        <route edges="gneE3 gneE6"/>
    </vehicle>
    <vehicle id="149" depart="357.60">
        <route edges="gneE2 -gneE3"/>
    </vehicle>
    <vehicle id="150" depart="360.00">
        <route edges="gneE2 gneE6"/>
    </vehicle>
    <vehicle id="151" depart="362.40">
        <route edges="-gneE4 -gneE2"/>
    </vehicle>
    <vehicle id="152" depart="364.80">
        <route edges="gneE3 -gneE2"/>
    </vehicle>
    <vehicle id="153" depart="367.20">
        <route edges="gneE3 gneE4"/>
    </vehicle>
    <vehicle id="154" depart="369.60">
        <route edges="gneE2 gneE6"/>
    </vehicle>
    <vehicle id="155" depart="372.00">
        <route edges="gneE3 -gneE2"/>
    </vehicle>
    <vehicle id="157" depart="376.80">
        <route edges="gneE3 gneE6"/>
    </vehicle>
    <vehicle id="159" depart="381.60">
        <route edges="-gneE6 gneE4"/>
    </vehicle>
    <vehicle id="160" depart="384.00">
        <route edges="gneE2 gneE4"/>
    </vehicle>
    <vehicle id="163" depart="391.20">
        <route edges="-gneE6 -gneE2"/>
    </vehicle>
    <vehicle id="165" depart="396.00">
        <route edges="-gneE4 gneE6"/>
    </vehicle>
    <vehicle id="166" depart="398.40">
        <route edges="-gneE4 -gneE2"/>
    </vehicle>
    <vehicle id="167" depart="400.80">
        <route edges="gneE2 -gneE3"/>
    </vehicle>
    <vehicle id="168" depart="403.20">
        <route edges="-gneE6 gneE4"/>
    </vehicle>
    <vehicle id="169" depart="405.60">
        <route edges="gneE3 gneE6"/>
    </vehicle>
    <vehicle id="170" depart="408.00">
        <route edges="-gneE6 -gneE2"/>
    </vehicle>
    <vehicle id="171" depart="410.40">
        <route edges="-gneE4 -gneE3"/>
    </vehicle>
    <vehicle id="173" depart="415.20">
        <route edges="gneE2 -gneE3"/>
    </vehicle>
    <vehicle id="175" depart="420.00">
        <route edges="-gneE6 -gneE2"/>
    </vehicle>
    <vehicle id="176" depart="422.40">
        <route edges="gneE3 -gneE2"/>
    </vehicle>
    <vehicle id="177" depart="424.80">
        <route edges="-gneE4 -gneE2"/>
    </vehicle>
    <vehicle id="178" depart="427.20">
        <route edges="-gneE6 -gneE2"/>
    </vehicle>
    <vehicle id="179" depart="429.60">
        <route edges="-gneE4 gneE6"/>
    </vehicle>
    <vehicle id="180" depart="432.00">
        <route edges="gneE3 gneE4"/>
    </vehicle>
    <vehicle id="181" depart="434.40">
        <route edges="-gneE4 -gneE2"/>
    </vehicle>
    <vehicle id="182" depart="436.80">
        <route edges="-gneE6 -gneE2"/>
    </vehicle>
    <vehicle id="183" depart="439.20">
        <route edges="-gneE6 gneE4"/>
    </vehicle>
    <vehicle id="186" depart="446.40">
        <route edges="-gneE6 -gneE2"/>
    </vehicle>
    <vehicle id="187" depart="448.80">
        <route edges="-gneE6 -gneE2"/>
    </vehicle>
    <vehicle id="190" depart="456.00">
        <route edges="gneE2 gneE4"/>
    </vehicle>
    <vehicle id="191" depart="458.40">
        <route edges="-gneE6 -gneE3"/>
    </vehicle>
    <vehicle id="194" depart="465.60">
        <route edges="gneE3 -gneE2"/>
    </vehicle>
    <vehicle id="195" depart="468.00">
        <route edges="-gneE4 -gneE2"/>
    </vehicle>
    <vehicle id="196" depart="470.40">
        <route edges="gneE3 -gneE2"/>
    </vehicle>
    <vehicle id="198" depart="475.20">
        <route edges="gneE3 -gneE2"/>
    </vehicle>
    <vehicle id="199" depart="477.60">
        <route edges="gneE2 -gneE3"/>
    </vehicle>
    <vehicle id="201" depart="482.40">
        <route edges="gneE2 -gneE3"/>
    </vehicle>
    <vehicle id="202" depart="484.80">
        <route edges="gneE2 gneE4"/>
    </vehicle>
    <vehicle id="204" depart="489.60">
        <route edges="gneE2 gneE4"/>
    </vehicle>
    <vehicle id="205" depart="492.00">
        <route edges="gneE2 gneE4"/>
    </vehicle>
    <vehicle id="206" depart="494.40">
        <route edges="-gneE6 -gneE2"/>
    </vehicle>
    <vehicle id="208" depart="499.20">
        <route edges="-gneE4 -gneE3"/>
    </vehicle>
    <vehicle id="210" depart="504.00">
        <route edges="gneE3 gneE6"/>
    </vehicle>
    <vehicle id="212" depart="508.80">
        <route edges="-gneE6 -gneE2"/>
    </vehicle>
    <vehicle id="214" depart="513.60">
        <route edges="gneE3 -gneE2"/>
    </vehicle>
    <vehicle id="215" depart="516.00">
        <route edges="-gneE4 gneE6"/>
    </vehicle>
    <vehicle id="216" depart="518.40">
        <route edges="gneE2 -gneE3"/>
    </vehicle>
    <vehicle id="217" depart="520.80">
        <route edges="gneE2 -gneE3"/>
    </vehicle>
    <vehicle id="219" depart="525.60">
        <route edges="gneE3 gneE6"/>
    </vehicle>
    <vehicle id="220" depart="528.00">
        <route edges="gneE2 gneE4"/>
    </vehicle>
    <vehicle id="221" depart="530.40">
        <route edges="gneE3 gneE4"/>
    </vehicle>
    <vehicle id="222" depart="532.80">
        <route edges="-gneE4 -gneE3"/>
    </vehicle>
    <vehicle id="223" depart="535.20">
        <route edges="-gneE6 -gneE2"/>
    </vehicle>
    <vehicle id="224" depart="537.60">
        <route edges="gneE2 -gneE3"/>
    </vehicle>
    <vehicle id="226" depart="542.40">
        <route edges="gneE3 gneE4"/>
    </vehicle>
    <vehicle id="227" depart="544.80">
        <route edges="-gneE4 gneE6"/>
    </vehicle>
    <vehicle id="228" depart="547.20">
        <route edges="gneE2 -gneE3"/>
    </vehicle>
    <vehicle id="229" depart="549.60">
        <route edges="gneE2 gneE4"/>
    </vehicle>
    <vehicle id="230" depart="552.00">
        <route edges="-gneE4 gneE6"/>
    </vehicle>
    <vehicle id="231" depart="554.40">
        <route edges="-gneE6 -gneE3"/>
    </vehicle>
    <vehicle id="233" depart="559.20">
        <route edges="-gneE4 gneE6"/>
    </vehicle>
    <vehicle id="234" depart="561.60">
        <route edges="gneE3 -gneE2"/>
    </vehicle>
    <vehicle id="236" depart="566.40">
        <route edges="-gneE4 -gneE2"/>
    </vehicle>
    <vehicle id="237" depart="568.80">
        <route edges="gneE2 gneE4"/>
    </vehicle>
    <vehicle id="238" depart="571.20">
        <route edges="-gneE6 -gneE2"/>
    </vehicle>
    <vehicle id="239" depart="573.60">
        <route edges="-gneE4 -gneE3"/>
    </vehicle>
    <vehicle id="240" depart="576.00">
        <route edges="-gneE4 -gneE3"/>
    </vehicle>
    <vehicle id="242" depart="580.80">
        <route edges="-gneE6 gneE4"/>
    </vehicle>
    <vehicle id="243" depart="583.20">
        <route edges="gneE3 -gneE2"/>
    </vehicle>
    <vehicle id="244" depart="585.60">
        <route edges="gneE2 -gneE3"/>
    </vehicle>
    <vehicle id="245" depart="588.00">
        <route edges="gneE3 -gneE2"/>
    </vehicle>
    <vehicle id="247" depart="592.80">
        <route edges="gneE2 gneE6"/>
    </vehicle>
    <vehicle id="249" depart="597.60">
        <route edges="gneE2 gneE6"/>
    </vehicle>
    <vehicle id="250" depart="600.00">
        <route edges="gneE2 gneE4"/>
    </vehicle>
    <vehicle id="252" depart="604.80">
        <route edges="-gneE6 -gneE3"/>
    </vehicle>
    <vehicle id="255" depart="612.00">
        <route edges="gneE2 -gneE3"/>
    </vehicle>
    <vehicle id="256" depart="614.40">
        <route edges="gneE3 gneE4"/>
    </vehicle>
    <vehicle id="257" depart="616.80">
        <route edges="gneE2 gneE4"/>
    </vehicle>
    <vehicle id="258" depart="619.20">
        <route edges="gneE2 gneE6"/>
    </vehicle>
    <vehicle id="259" depart="621.60">
        <route edges="gneE2 gneE6"/>
    </vehicle>
    <vehicle id="260" depart="624.00">
        <route edges="gneE2 gneE6"/>
    </vehicle>
    <vehicle id="262" depart="628.80">
        <route edges="gneE2 -gneE3"/>
    </vehicle>
    <vehicle id="263" depart="631.20">
        <route edges="-gneE6 -gneE2"/>
    </vehicle>
    <vehicle id="264" depart="633.60">
        <route edges="-gneE4 -gneE3"/>
    </vehicle>
    <vehicle id="266" depart="638.40">
        <route edges="-gneE6 -gneE3"/>
    </vehicle>
    <vehicle id="268" depart="643.20">
        <route edges="-gneE4 -gneE2"/>
    </vehicle>
    <vehicle id="270" depart="648.00">
        <route edges="gneE3 gneE6"/>
    </vehicle>
    <vehicle id="272" depart="652.80">
        <route edges="-gneE6 -gneE3"/>
    </vehicle>
    <vehicle id="273" depart="655.20">
        <route edges="gneE2 gneE6"/>
    </vehicle>
    <vehicle id="274" depart="657.60">
        <route edges="-gneE6 -gneE3"/>
    </vehicle>
    <vehicle id="277" depart="664.80">
        <route edges="gneE2 -gneE3"/>
    </vehicle>
    <vehicle id="278" depart="667.20">
        <route edges="-gneE6 -gneE2"/>
    </vehicle>
    <vehicle id="280" depart="672.00">
        <route edges="gneE3 gneE6"/>
    </vehicle>
    <vehicle id="281" depart="674.40">
        <route edges="gneE3 gneE4"/>
    </vehicle>
    <vehicle id="283" depart="679.20">
        <route edges="gneE2 gneE4"/>
    </vehicle>
    <vehicle id="287" depart="688.80">
        <route edges="-gneE4 -gneE2"/>
    </vehicle>
    <vehicle id="288" depart="691.20">
        <route edges="gneE3 -gneE2"/>
    </vehicle>
    <vehicle id="289" depart="693.60">
        <route edges="gneE2 gneE6"/>
    </vehicle>
    <vehicle id="290" depart="696.00">
        <route edges="gneE3 gneE4"/>
    </vehicle>
    <vehicle id="291" depart="698.40">
        <route edges="-gneE6 gneE4"/>
    </vehicle>
    <vehicle id="292" depart="700.80">
        <route edges="-gneE6 -gneE2"/>
    </vehicle>
    <vehicle id="293" depart="703.20">
        <route edges="-gneE4 gneE6"/>
    </vehicle>
    <vehicle id="294" depart="705.60">
        <route edges="-gneE4 -gneE3"/>
    </vehicle>
    <vehicle id="295" depart="708.00">
        <route edges="gneE3 gneE6"/>
    </vehicle>
    <vehicle id="296" depart="710.40">
        <route edges="gneE3 gneE4"/>
    </vehicle>
    <vehicle id="297" depart="712.80">
        <route edges="-gneE4 -gneE2"/>
    </vehicle>
    <vehicle id="298" depart="715.20">
        <route edges="gneE3 -gneE2"/>
    </vehicle>
    <vehicle id="300" depart="720.00">
        <route edges="gneE2 -gneE3"/>
    </vehicle>
    <vehicle id="301" depart="722.40">
        <route edges="-gneE4 -gneE2"/>
    </vehicle>
    <vehicle id="302" depart="724.80">
        <route edges="gneE2 -gneE3"/>
    </vehicle>
    <vehicle id="303" depart="727.20">
        <route edges="gneE3 gneE4"/>
    </vehicle>
    <vehicle id="304" depart="729.60">
        <route edges="gneE3 -gneE2"/>
    </vehicle>
    <vehicle id="305" depart="732.00">
        <route edges="-gneE6 -gneE3"/>
    </vehicle>
    <vehicle id="306" depart="734.40">
        <route edges="-gneE4 -gneE3"/>
    </vehicle>
    <vehicle id="307" depart="736.80">
        <route edges="gneE3 gneE4"/>
    </vehicle>
    <vehicle id="308" depart="739.20">
        <route edges="-gneE6 -gneE3"/>
    </vehicle>
    <vehicle id="309" depart="741.60">
        <route edges="gneE3 gneE6"/>
    </vehicle>
    <vehicle id="311" depart="746.40">
        <route edges="gneE2 gneE6"/>
    </vehicle>
    <vehicle id="312" depart="748.80">
        <route edges="gneE2 gneE4"/>
    </vehicle>
    <vehicle id="313" depart="751.20">
        <route edges="gneE2 gneE4"/>
    </vehicle>
    <vehicle id="314" depart="753.60">
        <route edges="-gneE4 -gneE2"/>
    </vehicle>
    <vehicle id="315" depart="756.00">
        <route edges="-gneE4 -gneE3"/>
    </vehicle>
    <vehicle id="316" depart="758.40">
        <route edges="gneE2 gneE4"/>
    </vehicle>
    <vehicle id="317" depart="760.80">
        <route edges="gneE3 -gneE2"/>
    </vehicle>
    <vehicle id="318" depart="763.20">
        <route edges="gneE2 gneE6"/>
    </vehicle>
    <vehicle id="319" depart="765.60">
        <route edges="-gneE6 gneE4"/>
    </vehicle>
    <vehicle id="321" depart="770.40">
        <route edges="-gneE6 -gneE2"/>
    </vehicle>
    <vehicle id="322" depart="772.80">
        <route edges="gneE2 gneE4"/>
    </vehicle>
    <vehicle id="324" depart="777.60">
        <route edges="gneE2 gneE6"/>
    </vehicle>
    <vehicle id="325" depart="780.00">
        <route edges="gneE2 gneE6"/>
    </vehicle>
    <vehicle id="326" depart="782.40">
        <route edges="-gneE6 gneE4"/>
    </vehicle>
    <vehicle id="327" depart="784.80">
        <route edges="-gneE6 -gneE3"/>
    </vehicle>
    <vehicle id="328" depart="787.20">
        <route edges="-gneE6 -gneE3"/>
    </vehicle>
    <vehicle id="329" depart="789.60">
        <route edges="-gneE6 gneE4"/>
    </vehicle>
    <vehicle id="331" depart="794.40">
        <route edges="gneE3 gneE4"/>
    </vehicle>
    <vehicle id="332" depart="796.80">
        <route edges="gneE3 gneE6"/>
    </vehicle>
    <vehicle id="333" depart="799.20">
        <route edges="-gneE6 -gneE3"/>
    </vehicle>
    <vehicle id="335" depart="804.00">
        <route edges="gneE3 gneE4"/>
    </vehicle>
    <vehicle id="337" depart="808.80">
        <route edges="gneE2 -gneE3"/>
    </vehicle>
    <vehicle id="338" depart="811.20">
        <route edges="-gneE4 -gneE2"/>
    </vehicle>
    <vehicle id="340" depart="816.00">
        <route edges="gneE2 gneE6"/>
    </vehicle>
    <vehicle id="342" depart="820.80">
        <route edges="-gneE6 -gneE3"/>
    </vehicle>
    <vehicle id="343" depart="823.20">
        <route edges="gneE3 -gneE2"/>
    </vehicle>
    <vehicle id="344" depart="825.60">
        <route edges="gneE2 -gneE3"/>
    </vehicle>
    <vehicle id="345" depart="828.00">
        <route edges="gneE2 gneE6"/>
    </vehicle>
    <vehicle id="347" depart="832.80">
        <route edges="-gneE6 gneE4"/>
    </vehicle>
    <vehicle id="348" depart="835.20">
        <route edges="-gneE4 gneE6"/>
    </vehicle>
    <vehicle id="350" depart="840.00">
        <route edges="gneE3 gneE4"/>
    </vehicle>
    <vehicle id="354" depart="849.60">
        <route edges="gneE2 gneE4"/>
    </vehicle>
    <vehicle id="355" depart="852.00">
        <route edges="gneE3 -gneE2"/>
    </vehicle>
    <vehicle id="356" depart="854.40">
        <route edges="gneE2 -gneE3"/>
    </vehicle>
    <vehicle id="358" depart="859.20">
        <route edges="-gneE4 gneE6"/>
    </vehicle>
    <vehicle id="359" depart="861.60">
        <route edges="gneE3 gneE4"/>
    </vehicle>
    <vehicle id="361" depart="866.40">
        <route edges="gneE2 -gneE3"/>
    </vehicle>
    <vehicle id="362" depart="868.80">
        <route edges="gneE2 -gneE3"/>
    </vehicle>
    <vehicle id="363" depart="871.20">
        <route edges="gneE2 -gneE3"/>
    </vehicle>
    <vehicle id="365" depart="876.00">
        <route edges="-gneE6 -gneE2"/>
    </vehicle>
    <vehicle id="366" depart="878.40">
        <route edges="-gneE4 -gneE2"/>
    </vehicle>
    <vehicle id="367" depart="880.80">
        <route edges="-gneE4 gneE6"/>
    </vehicle>
    <vehicle id="368" depart="883.20">
        <route edges="-gneE6 -gneE3"/>
    </vehicle>
    <vehicle id="369" depart="885.60">
        <route edges="-gneE6 -gneE2"/>
    </vehicle>
    <vehicle id="370" depart="888.00">
        <route edges="-gneE6 -gneE3"/>
    </vehicle>
    <vehicle id="371" depart="890.40">
        <route edges="-gneE4 gneE6"/>
    </vehicle>
    <vehicle id="372" depart="892.80">
        <route edges="gneE2 -gneE3"/>
    </vehicle>
    <vehicle id="373" depart="895.20">
        <route edges="gneE2 gneE6"/>
    </vehicle>
    <vehicle id="375" depart="900.00">
        <route edges="gneE2 -gneE3"/>
    </vehicle>
    <vehicle id="377" depart="904.80">
        <route edges="gneE3 -gneE2"/>
    </vehicle>
    <vehicle id="381" depart="914.40">
        <route edges="-gneE4 -gneE2"/>
    </vehicle>
    <vehicle id="382" depart="916.80">
        <route edges="-gneE6 -gneE2"/>
    </vehicle>
    <vehicle id="384" depart="921.60">
        <route edges="gneE3 gneE6"/>
    </vehicle>
    <vehicle id="386" depart="926.40">
        <route edges="-gneE6 -gneE3"/>
    </vehicle>
    <vehicle id="387" depart="928.80">
        <route edges="-gneE6 -gneE3"/>
    </vehicle>
    <vehicle id="388" depart="931.20">
        <route edges="-gneE6 -gneE3"/>
    </vehicle>
    <vehicle id="389" depart="933.60">
        <route edges="-gneE6 -gneE2"/>
    </vehicle>
    <vehicle id="390" depart="936.00">
        <route edges="-gneE6 -gneE3"/>
    </vehicle>
    <vehicle id="391" depart="938.40">
        <route edges="-gneE6 -gneE2"/>
    </vehicle>
    <vehicle id="392" depart="940.80">
        <route edges="gneE3 gneE6"/>
    </vehicle>
    <vehicle id="393" depart="943.20">
        <route edges="gneE3 -gneE2"/>
    </vehicle>
    <vehicle id="394" depart="945.60">
        <route edges="-gneE6 -gneE3"/>
    </vehicle>
    <vehicle id="395" depart="948.00">
        <route edges="gneE2 gneE4"/>
    </vehicle>
    <vehicle id="398" depart="955.20">
        <route edges="gneE2 gneE4"/>
    </vehicle>
    <vehicle id="400" depart="960.00">
        <route edges="-gneE6 -gneE3"/>
    </vehicle>
    <vehicle id="401" depart="962.40">
        <route edges="gneE3 gneE6"/>
    </vehicle>
    <vehicle id="402" depart="964.80">
        <route edges="-gneE6 -gneE3"/>
    </vehicle>
    <vehicle id="404" depart="969.60">
        <route edges="-gneE4 -gneE3"/>
    </vehicle>
    <vehicle id="407" depart="976.80">
        <route edges="gneE3 gneE4"/>
    </vehicle>
    <vehicle id="409" depart="981.60">
        <route edges="-gneE6 -gneE2"/>
    </vehicle>
    <vehicle id="410" depart="984.00">
        <route edges="-gneE6 gneE4"/>
    </vehicle>
    <vehicle id="413" depart="991.20">
        <route edges="-gneE6 gneE4"/>
    </vehicle>
    <vehicle id="414" depart="993.60">
        <route edges="-gneE6 -gneE3"/>
    </vehicle>
    <vehicle id="415" depart="996.00">
        <route edges="-gneE4 -gneE2"/>
    </vehicle>
    <vehicle id="416" depart="998.40">
        <route edges="-gneE4 -gneE2"/>
    </vehicle>
</routes>
