<?xml version="1.0" encoding="UTF-8"?>

<!-- generated on Sun May  6 23:34:26 2018 by SUMO duarouter Version 0.30.0
<?xml version="1.0" encoding="UTF-8"?>

<configuration xmlns:xsi="http://www.w3.org/2001/XMLSchema-instance" xsi:noNamespaceSchemaLocation="http://sumo.dlr.de/xsd/duarouterConfiguration.xsd">

    <input>
        <net-file value="cross/cross.net.xml"/>
        <route-files value="trips.trips.xml"/>
    </input>

    <output>
        <output-file value="cross/route/cross-1.4-2.rou.xml"/>
    </output>

    <processing>
        <ignore-errors value="true"/>
    </processing>

    <time>
        <begin value="0.0"/>
        <end value="1000.0"/>
    </time>

    <report>
        <no-warnings value="true"/>
        <no-step-log value="true"/>
    </report>

</configuration>
-->

<routes xmlns:xsi="http://www.w3.org/2001/XMLSchema-instance" xsi:noNamespaceSchemaLocation="http://sumo.dlr.de/xsd/routes_file.xsd">
    <vehicle id="0" depart="0.00">
        <route edges="-gneE4 -gneE2"/>
    </vehicle>
    <vehicle id="1" depart="1.40">
        <route edges="gneE3 gneE6"/>
    </vehicle>
    <vehicle id="2" depart="2.80">
        <route edges="-gneE4 -gneE3"/>
    </vehicle>
    <vehicle id="3" depart="4.20">
        <route edges="gneE3 gneE6"/>
    </vehicle>
    <vehicle id="4" depart="5.60">
        <route edges="gneE2 gneE6"/>
    </vehicle>
    <vehicle id="5" depart="7.00">
        <route edges="-gneE6 -gneE2"/>
    </vehicle>
    <vehicle id="7" depart="9.80">
        <route edges="-gneE6 gneE4"/>
    </vehicle>
    <vehicle id="8" depart="11.20">
        <route edges="gneE2 gneE6"/>
    </vehicle>
    <vehicle id="9" depart="12.60">
        <route edges="gneE3 gneE4"/>
    </vehicle>
    <vehicle id="10" depart="14.00">
        <route edges="gneE3 gneE6"/>
    </vehicle>
    <vehicle id="11" depart="15.40">
        <route edges="-gneE6 -gneE2"/>
    </vehicle>
    <vehicle id="12" depart="16.80">
        <route edges="gneE2 gneE6"/>
    </vehicle>
    <vehicle id="15" depart="21.00">
        <route edges="-gneE4 gneE6"/>
    </vehicle>
    <vehicle id="16" depart="22.40">
        <route edges="-gneE6 -gneE2"/>
    </vehicle>
    <vehicle id="17" depart="23.80">
        <route edges="-gneE6 gneE4"/>
    </vehicle>
    <vehicle id="18" depart="25.20">
        <route edges="gneE3 gneE4"/>
    </vehicle>
    <vehicle id="19" depart="26.60">
        <route edges="-gneE4 -gneE2"/>
    </vehicle>
    <vehicle id="20" depart="28.00">
        <route edges="-gneE6 -gneE3"/>
    </vehicle>
    <vehicle id="21" depart="29.40">
        <route edges="gneE3 -gneE2"/>
    </vehicle>
    <vehicle id="22" depart="30.80">
        <route edges="gneE3 gneE6"/>
    </vehicle>
    <vehicle id="25" depart="35.00">
        <route edges="-gneE4 -gneE3"/>
    </vehicle>
    <vehicle id="26" depart="36.40">
        <route edges="-gneE6 gneE4"/>
    </vehicle>
    <vehicle id="28" depart="39.20">
        <route edges="-gneE4 gneE6"/>
    </vehicle>
    <vehicle id="30" depart="42.00">
        <route edges="gneE3 gneE4"/>
    </vehicle>
    <vehicle id="31" depart="43.40">
        <route edges="gneE3 gneE4"/>
    </vehicle>
    <vehicle id="32" depart="44.80">
        <route edges="gneE2 -gneE3"/>
    </vehicle>
    <vehicle id="34" depart="47.60">
        <route edges="-gneE4 -gneE2"/>
    </vehicle>
    <vehicle id="35" depart="49.00">
        <route edges="gneE3 gneE6"/>
    </vehicle>
    <vehicle id="38" depart="53.20">
        <route edges="gneE2 -gneE3"/>
    </vehicle>
    <vehicle id="41" depart="57.40">
        <route edges="-gneE6 -gneE2"/>
    </vehicle>
    <vehicle id="43" depart="60.20">
        <route edges="gneE3 -gneE2"/>
    </vehicle>
    <vehicle id="44" depart="61.60">
        <route edges="-gneE6 gneE4"/>
    </vehicle>
    <vehicle id="45" depart="63.00">
        <route edges="-gneE6 -gneE3"/>
    </vehicle>
    <vehicle id="46" depart="64.40">
        <route edges="-gneE6 -gneE3"/>
    </vehicle>
    <vehicle id="47" depart="65.80">
        <route edges="gneE3 gneE4"/>
    </vehicle>
    <vehicle id="48" depart="67.20">
        <route edges="-gneE4 gneE6"/>
    </vehicle>
    <vehicle id="50" depart="70.00">
        <route edges="-gneE4 -gneE3"/>
    </vehicle>
    <vehicle id="52" depart="72.80">
        <route edges="-gneE6 -gneE3"/>
    </vehicle>
    <vehicle id="53" depart="74.20">
        <route edges="-gneE4 -gneE3"/>
    </vehicle>
    <vehicle id="54" depart="75.60">
        <route edges="-gneE4 -gneE2"/>
    </vehicle>
    <vehicle id="55" depart="77.00">
        <route edges="gneE3 -gneE2"/>
    </vehicle>
    <vehicle id="56" depart="78.40">
        <route edges="gneE3 -gneE2"/>
    </vehicle>
    <vehicle id="61" depart="85.40">
        <route edges="-gneE4 -gneE3"/>
    </vehicle>
    <vehicle id="62" depart="86.80">
        <route edges="-gneE4 gneE6"/>
    </vehicle>
    <vehicle id="67" depart="93.80">
        <route edges="gneE2 gneE4"/>
    </vehicle>
    <vehicle id="68" depart="95.20">
        <route edges="-gneE6 gneE4"/>
    </vehicle>
    <vehicle id="69" depart="96.60">
        <route edges="-gneE4 gneE6"/>
    </vehicle>
    <vehicle id="70" depart="98.00">
        <route edges="-gneE6 gneE4"/>
    </vehicle>
    <vehicle id="72" depart="100.80">
        <route edges="gneE3 -gneE2"/>
    </vehicle>
    <vehicle id="73" depart="102.20">
        <route edges="-gneE4 gneE6"/>
    </vehicle>
    <vehicle id="74" depart="103.60">
        <route edges="-gneE6 gneE4"/>
    </vehicle>
    <vehicle id="75" depart="105.00">
        <route edges="-gneE6 -gneE2"/>
    </vehicle>
    <vehicle id="76" depart="106.40">
        <route edges="-gneE4 gneE6"/>
    </vehicle>
    <vehicle id="77" depart="107.80">
        <route edges="-gneE6 gneE4"/>
    </vehicle>
    <vehicle id="78" depart="109.20">
        <route edges="-gneE4 gneE6"/>
    </vehicle>
    <vehicle id="79" depart="110.60">
        <route edges="-gneE4 -gneE3"/>
    </vehicle>
    <vehicle id="80" depart="112.00">
        <route edges="-gneE6 gneE4"/>
    </vehicle>
    <vehicle id="81" depart="113.40">
        <route edges="gneE3 gneE4"/>
    </vehicle>
    <vehicle id="82" depart="114.80">
        <route edges="-gneE6 gneE4"/>
    </vehicle>
    <vehicle id="83" depart="116.20">
        <route edges="-gneE4 -gneE2"/>
    </vehicle>
    <vehicle id="84" depart="117.60">
        <route edges="gneE2 gneE4"/>
    </vehicle>
    <vehicle id="85" depart="119.00">
        <route edges="gneE3 gneE4"/>
    </vehicle>
    <vehicle id="86" depart="120.40">
        <route edges="gneE2 gneE4"/>
    </vehicle>
    <vehicle id="87" depart="121.80">
        <route edges="-gneE6 -gneE2"/>
    </vehicle>
    <vehicle id="88" depart="123.20">
        <route edges="-gneE6 -gneE2"/>
    </vehicle>
    <vehicle id="89" depart="124.60">
        <route edges="-gneE6 -gneE3"/>
    </vehicle>
    <vehicle id="90" depart="126.00">
        <route edges="gneE3 gneE4"/>
    </vehicle>
    <vehicle id="92" depart="128.80">
        <route edges="gneE2 gneE4"/>
    </vehicle>
    <vehicle id="93" depart="130.20">
        <route edges="-gneE4 -gneE3"/>
    </vehicle>
    <vehicle id="94" depart="131.60">
        <route edges="gneE2 gneE6"/>
    </vehicle>
    <vehicle id="95" depart="133.00">
        <route edges="gneE2 gneE6"/>
    </vehicle>
    <vehicle id="96" depart="134.40">
        <route edges="-gneE6 gneE4"/>
    </vehicle>
    <vehicle id="97" depart="135.80">
        <route edges="gneE3 gneE4"/>
    </vehicle>
    <vehicle id="99" depart="138.60">
        <route edges="gneE2 -gneE3"/>
    </vehicle>
    <vehicle id="100" depart="140.00">
        <route edges="-gneE6 -gneE2"/>
    </vehicle>
    <vehicle id="101" depart="141.40">
        <route edges="gneE2 -gneE3"/>
    </vehicle>
    <vehicle id="102" depart="142.80">
        <route edges="-gneE6 -gneE2"/>
    </vehicle>
    <vehicle id="103" depart="144.20">
        <route edges="gneE3 -gneE2"/>
    </vehicle>
    <vehicle id="104" depart="145.60">
        <route edges="-gneE4 gneE6"/>
    </vehicle>
    <vehicle id="106" depart="148.40">
        <route edges="gneE2 gneE6"/>
    </vehicle>
    <vehicle id="107" depart="149.80">
        <route edges="-gneE4 gneE6"/>
    </vehicle>
    <vehicle id="108" depart="151.20">
        <route edges="-gneE6 -gneE3"/>
    </vehicle>
    <vehicle id="109" depart="152.60">
        <route edges="gneE2 gneE4"/>
    </vehicle>
    <vehicle id="110" depart="154.00">
        <route edges="gneE3 gneE6"/>
    </vehicle>
    <vehicle id="111" depart="155.40">
        <route edges="-gneE6 -gneE2"/>
    </vehicle>
    <vehicle id="112" depart="156.80">
        <route edges="gneE2 gneE6"/>
    </vehicle>
    <vehicle id="113" depart="158.20">
        <route edges="gneE3 -gneE2"/>
    </vehicle>
    <vehicle id="114" depart="159.60">
        <route edges="-gneE4 -gneE3"/>
    </vehicle>
    <vehicle id="115" depart="161.00">
        <route edges="-gneE6 gneE4"/>
    </vehicle>
    <vehicle id="116" depart="162.40">
        <route edges="-gneE6 gneE4"/>
    </vehicle>
    <vehicle id="117" depart="163.80">
        <route edges="gneE3 -gneE2"/>
    </vehicle>
    <vehicle id="120" depart="168.00">
        <route edges="-gneE4 gneE6"/>
    </vehicle>
    <vehicle id="121" depart="169.40">
        <route edges="gneE3 gneE4"/>
    </vehicle>
    <vehicle id="122" depart="170.80">
        <route edges="-gneE4 gneE6"/>
    </vehicle>
    <vehicle id="123" depart="172.20">
        <route edges="-gneE4 -gneE3"/>
    </vehicle>
    <vehicle id="125" depart="175.00">
        <route edges="gneE3 -gneE2"/>
    </vehicle>
    <vehicle id="127" depart="177.80">
        <route edges="-gneE6 -gneE3"/>
    </vehicle>
    <vehicle id="130" depart="182.00">
        <route edges="gneE2 -gneE3"/>
    </vehicle>
    <vehicle id="132" depart="184.80">
        <route edges="gneE2 gneE4"/>
    </vehicle>
    <vehicle id="133" depart="186.20">
        <route edges="gneE2 gneE6"/>
    </vehicle>
    <vehicle id="134" depart="187.60">
        <route edges="gneE2 gneE4"/>
    </vehicle>
    <vehicle id="135" depart="189.00">
        <route edges="gneE3 gneE6"/>
    </vehicle>
    <vehicle id="136" depart="190.40">
        <route edges="-gneE6 -gneE3"/>
    </vehicle>
    <vehicle id="137" depart="191.80">
        <route edges="gneE3 gneE4"/>
    </vehicle>
    <vehicle id="138" depart="193.20">
        <route edges="gneE3 -gneE2"/>
    </vehicle>
    <vehicle id="140" depart="196.00">
        <route edges="-gneE4 gneE6"/>
    </vehicle>
    <vehicle id="141" depart="197.40">
        <route edges="-gneE4 gneE6"/>
    </vehicle>
    <vehicle id="142" depart="198.80">
        <route edges="gneE2 -gneE3"/>
    </vehicle>
    <vehicle id="143" depart="200.20">
        <route edges="gneE2 gneE6"/>
    </vehicle>
    <vehicle id="144" depart="201.60">
        <route edges="gneE3 gneE4"/>
    </vehicle>
    <vehicle id="145" depart="203.00">
        <route edges="-gneE4 -gneE2"/>
    </vehicle>
    <vehicle id="147" depart="205.80">
        <route edges="gneE2 gneE4"/>
    </vehicle>
    <vehicle id="149" depart="208.60">
        <route edges="-gneE6 gneE4"/>
    </vehicle>
    <vehicle id="152" depart="212.80">
        <route edges="-gneE4 -gneE2"/>
    </vehicle>
    <vehicle id="153" depart="214.20">
        <route edges="-gneE6 -gneE3"/>
    </vehicle>
    <vehicle id="154" depart="215.60">
        <route edges="gneE3 gneE6"/>
    </vehicle>
    <vehicle id="155" depart="217.00">
        <route edges="-gneE6 -gneE3"/>
    </vehicle>
    <vehicle id="156" depart="218.40">
        <route edges="-gneE6 -gneE2"/>
    </vehicle>
    <vehicle id="157" depart="219.80">
        <route edges="gneE2 gneE4"/>
    </vehicle>
    <vehicle id="158" depart="221.20">
        <route edges="gneE3 gneE4"/>
    </vehicle>
    <vehicle id="159" depart="222.60">
        <route edges="-gneE6 gneE4"/>
    </vehicle>
    <vehicle id="161" depart="225.40">
        <route edges="-gneE4 -gneE3"/>
    </vehicle>
    <vehicle id="163" depart="228.20">
        <route edges="gneE2 -gneE3"/>
    </vehicle>
    <vehicle id="164" depart="229.60">
        <route edges="-gneE6 -gneE2"/>
    </vehicle>
    <vehicle id="165" depart="231.00">
        <route edges="gneE3 gneE6"/>
    </vehicle>
    <vehicle id="168" depart="235.20">
        <route edges="-gneE4 -gneE2"/>
    </vehicle>
    <vehicle id="169" depart="236.60">
        <route edges="gneE3 gneE6"/>
    </vehicle>
    <vehicle id="170" depart="238.00">
        <route edges="gneE3 -gneE2"/>
    </vehicle>
    <vehicle id="172" depart="240.80">
        <route edges="gneE3 -gneE2"/>
    </vehicle>
    <vehicle id="173" depart="242.20">
        <route edges="-gneE6 gneE4"/>
    </vehicle>
    <vehicle id="175" depart="245.00">
        <route edges="-gneE6 gneE4"/>
    </vehicle>
    <vehicle id="176" depart="246.40">
        <route edges="gneE3 gneE4"/>
    </vehicle>
    <vehicle id="177" depart="247.80">
        <route edges="gneE2 gneE4"/>
    </vehicle>
    <vehicle id="179" depart="250.60">
        <route edges="gneE2 gneE6"/>
    </vehicle>
    <vehicle id="180" depart="252.00">
        <route edges="-gneE4 -gneE2"/>
    </vehicle>
    <vehicle id="181" depart="253.40">
        <route edges="-gneE6 -gneE2"/>
    </vehicle>
    <vehicle id="182" depart="254.80">
        <route edges="gneE2 gneE6"/>
    </vehicle>
    <vehicle id="183" depart="256.20">
        <route edges="gneE3 gneE4"/>
    </vehicle>
    <vehicle id="185" depart="259.00">
        <route edges="-gneE4 -gneE3"/>
    </vehicle>
    <vehicle id="186" depart="260.40">
        <route edges="-gneE6 -gneE2"/>
    </vehicle>
    <vehicle id="187" depart="261.80">
        <route edges="-gneE6 gneE4"/>
    </vehicle>
    <vehicle id="188" depart="263.20">
        <route edges="-gneE4 gneE6"/>
    </vehicle>
    <vehicle id="189" depart="264.60">
        <route edges="gneE2 -gneE3"/>
    </vehicle>
    <vehicle id="190" depart="266.00">
        <route edges="gneE3 gneE6"/>
    </vehicle>
    <vehicle id="191" depart="267.40">
        <route edges="-gneE6 -gneE2"/>
    </vehicle>
    <vehicle id="192" depart="268.80">
        <route edges="gneE2 gneE6"/>
    </vehicle>
    <vehicle id="193" depart="270.20">
        <route edges="-gneE6 gneE4"/>
    </vehicle>
    <vehicle id="194" depart="271.60">
        <route edges="gneE2 gneE4"/>
    </vehicle>
    <vehicle id="195" depart="273.00">
        <route edges="-gneE4 -gneE2"/>
    </vehicle>
    <vehicle id="196" depart="274.40">
        <route edges="gneE2 gneE4"/>
    </vehicle>
    <vehicle id="197" depart="275.80">
        <route edges="-gneE6 -gneE2"/>
    </vehicle>
    <vehicle id="198" depart="277.20">
        <route edges="gneE2 -gneE3"/>
    </vehicle>
    <vehicle id="199" depart="278.60">
        <route edges="-gneE4 -gneE2"/>
    </vehicle>
    <vehicle id="200" depart="280.00">
        <route edges="gneE3 -gneE2"/>
    </vehicle>
    <vehicle id="201" depart="281.40">
        <route edges="-gneE4 -gneE2"/>
    </vehicle>
    <vehicle id="202" depart="282.80">
        <route edges="gneE3 gneE4"/>
    </vehicle>
    <vehicle id="203" depart="284.20">
        <route edges="gneE3 gneE6"/>
    </vehicle>
    <vehicle id="205" depart="287.00">
        <route edges="-gneE6 -gneE3"/>
    </vehicle>
    <vehicle id="207" depart="289.80">
        <route edges="gneE3 gneE6"/>
    </vehicle>
    <vehicle id="208" depart="291.20">
        <route edges="gneE2 gneE6"/>
    </vehicle>
    <vehicle id="211" depart="295.40">
        <route edges="gneE3 gneE6"/>
    </vehicle>
    <vehicle id="213" depart="298.20">
        <route edges="-gneE6 -gneE2"/>
    </vehicle>
    <vehicle id="216" depart="302.40">
        <route edges="gneE3 gneE4"/>
    </vehicle>
    <vehicle id="217" depart="303.80">
        <route edges="-gneE6 -gneE2"/>
    </vehicle>
    <vehicle id="218" depart="305.20">
        <route edges="gneE2 -gneE3"/>
    </vehicle>
    <vehicle id="219" depart="306.60">
        <route edges="gneE2 -gneE3"/>
    </vehicle>
    <vehicle id="220" depart="308.00">
        <route edges="gneE3 -gneE2"/>
    </vehicle>
    <vehicle id="221" depart="309.40">
        <route edges="-gneE6 gneE4"/>
    </vehicle>
    <vehicle id="223" depart="312.20">
        <route edges="-gneE4 gneE6"/>
    </vehicle>
    <vehicle id="224" depart="313.60">
        <route edges="gneE2 gneE6"/>
    </vehicle>
    <vehicle id="225" depart="315.00">
        <route edges="-gneE6 -gneE3"/>
    </vehicle>
    <vehicle id="226" depart="316.40">
        <route edges="-gneE6 -gneE2"/>
    </vehicle>
    <vehicle id="229" depart="320.60">
        <route edges="gneE3 gneE4"/>
    </vehicle>
    <vehicle id="230" depart="322.00">
        <route edges="-gneE6 gneE4"/>
    </vehicle>
    <vehicle id="231" depart="323.40">
        <route edges="gneE2 -gneE3"/>
    </vehicle>
    <vehicle id="233" depart="326.20">
        <route edges="gneE3 -gneE2"/>
    </vehicle>
    <vehicle id="236" depart="330.40">
        <route edges="gneE3 gneE6"/>
    </vehicle>
    <vehicle id="237" depart="331.80">
        <route edges="-gneE6 -gneE2"/>
    </vehicle>
    <vehicle id="239" depart="334.60">
        <route edges="-gneE4 -gneE3"/>
    </vehicle>
    <vehicle id="244" depart="341.60">
        <route edges="-gneE4 -gneE2"/>
    </vehicle>
    <vehicle id="245" depart="343.00">
        <route edges="gneE2 gneE6"/>
    </vehicle>
    <vehicle id="246" depart="344.40">
        <route edges="gneE2 gneE6"/>
    </vehicle>
    <vehicle id="247" depart="345.80">
        <route edges="gneE2 gneE4"/>
    </vehicle>
    <vehicle id="248" depart="347.20">
        <route edges="-gneE6 -gneE3"/>
    </vehicle>
    <vehicle id="250" depart="350.00">
        <route edges="gneE3 gneE6"/>
    </vehicle>
    <vehicle id="251" depart="351.40">
        <route edges="gneE2 gneE4"/>
    </vehicle>
    <vehicle id="252" depart="352.80">
        <route edges="-gneE4 -gneE2"/>
    </vehicle>
    <vehicle id="253" depart="354.20">
        <route edges="-gneE4 -gneE2"/>
    </vehicle>
    <vehicle id="254" depart="355.60">
        <route edges="-gneE4 gneE6"/>
    </vehicle>
    <vehicle id="255" depart="357.00">
        <route edges="gneE3 -gneE2"/>
    </vehicle>
    <vehicle id="257" depart="359.80">
        <route edges="gneE3 gneE6"/>
    </vehicle>
    <vehicle id="258" depart="361.20">
        <route edges="-gneE4 -gneE3"/>
    </vehicle>
    <vehicle id="259" depart="362.60">
        <route edges="-gneE6 -gneE3"/>
    </vehicle>
    <vehicle id="260" depart="364.00">
        <route edges="gneE2 gneE6"/>
    </vehicle>
    <vehicle id="261" depart="365.40">
        <route edges="gneE3 gneE6"/>
    </vehicle>
    <vehicle id="262" depart="366.80">
        <route edges="-gneE6 gneE4"/>
    </vehicle>
    <vehicle id="263" depart="368.20">
        <route edges="gneE3 gneE4"/>
    </vehicle>
    <vehicle id="264" depart="369.60">
        <route edges="gneE3 -gneE2"/>
    </vehicle>
    <vehicle id="265" depart="371.00">
        <route edges="-gneE6 -gneE2"/>
    </vehicle>
    <vehicle id="266" depart="372.40">
        <route edges="gneE3 gneE4"/>
    </vehicle>
    <vehicle id="267" depart="373.80">
        <route edges="-gneE6 -gneE2"/>
    </vehicle>
    <vehicle id="268" depart="375.20">
        <route edges="-gneE6 -gneE2"/>
    </vehicle>
    <vehicle id="269" depart="376.60">
        <route edges="-gneE4 -gneE3"/>
    </vehicle>
    <vehicle id="270" depart="378.00">
        <route edges="-gneE6 -gneE2"/>
    </vehicle>
    <vehicle id="271" depart="379.40">
        <route edges="-gneE6 gneE4"/>
    </vehicle>
    <vehicle id="274" depart="383.60">
        <route edges="gneE2 gneE6"/>
    </vehicle>
    <vehicle id="275" depart="385.00">
        <route edges="gneE3 gneE6"/>
    </vehicle>
    <vehicle id="276" depart="386.40">
        <route edges="gneE2 gneE6"/>
    </vehicle>
    <vehicle id="277" depart="387.80">
        <route edges="gneE2 -gneE3"/>
    </vehicle>
    <vehicle id="280" depart="392.00">
        <route edges="gneE2 -gneE3"/>
    </vehicle>
    <vehicle id="281" depart="393.40">
        <route edges="-gneE6 -gneE2"/>
    </vehicle>
    <vehicle id="282" depart="394.80">
        <route edges="-gneE6 -gneE2"/>
    </vehicle>
    <vehicle id="283" depart="396.20">
        <route edges="-gneE4 gneE6"/>
    </vehicle>
    <vehicle id="284" depart="397.60">
        <route edges="gneE2 gneE4"/>
    </vehicle>
    <vehicle id="285" depart="399.00">
        <route edges="-gneE4 -gneE2"/>
    </vehicle>
    <vehicle id="286" depart="400.40">
        <route edges="gneE2 -gneE3"/>
    </vehicle>
    <vehicle id="287" depart="401.80">
        <route edges="-gneE4 -gneE2"/>
    </vehicle>
    <vehicle id="288" depart="403.20">
        <route edges="gneE3 gneE6"/>
    </vehicle>
    <vehicle id="289" depart="404.60">
        <route edges="-gneE6 -gneE3"/>
    </vehicle>
    <vehicle id="290" depart="406.00">
        <route edges="gneE2 -gneE3"/>
    </vehicle>
    <vehicle id="291" depart="407.40">
        <route edges="gneE2 gneE6"/>
    </vehicle>
    <vehicle id="292" depart="408.80">
        <route edges="-gneE6 -gneE3"/>
    </vehicle>
    <vehicle id="293" depart="410.20">
        <route edges="gneE2 gneE4"/>
    </vehicle>
    <vehicle id="296" depart="414.40">
        <route edges="-gneE6 gneE4"/>
    </vehicle>
    <vehicle id="299" depart="418.60">
        <route edges="-gneE6 -gneE2"/>
    </vehicle>
    <vehicle id="300" depart="420.00">
        <route edges="-gneE6 gneE4"/>
    </vehicle>
    <vehicle id="301" depart="421.40">
        <route edges="-gneE4 -gneE2"/>
    </vehicle>
    <vehicle id="303" depart="424.20">
        <route edges="-gneE4 -gneE3"/>
    </vehicle>
    <vehicle id="304" depart="425.60">
        <route edges="gneE2 gneE6"/>
    </vehicle>
    <vehicle id="305" depart="427.00">
        <route edges="gneE3 gneE4"/>
    </vehicle>
    <vehicle id="306" depart="428.40">
        <route edges="gneE3 -gneE2"/>
    </vehicle>
    <vehicle id="307" depart="429.80">
        <route edges="gneE2 -gneE3"/>
    </vehicle>
    <vehicle id="308" depart="431.20">
        <route edges="-gneE4 -gneE2"/>
    </vehicle>
    <vehicle id="309" depart="432.60">
        <route edges="-gneE4 -gneE2"/>
    </vehicle>
    <vehicle id="310" depart="434.00">
        <route edges="gneE2 gneE4"/>
    </vehicle>
    <vehicle id="311" depart="435.40">
        <route edges="-gneE6 gneE4"/>
    </vehicle>
    <vehicle id="312" depart="436.80">
        <route edges="-gneE6 -gneE3"/>
    </vehicle>
    <vehicle id="313" depart="438.20">
        <route edges="-gneE4 -gneE2"/>
    </vehicle>
    <vehicle id="314" depart="439.60">
        <route edges="-gneE4 -gneE2"/>
    </vehicle>
    <vehicle id="315" depart="441.00">
        <route edges="-gneE6 gneE4"/>
    </vehicle>
    <vehicle id="317" depart="443.80">
        <route edges="-gneE6 gneE4"/>
    </vehicle>
    <vehicle id="320" depart="448.00">
        <route edges="-gneE6 gneE4"/>
    </vehicle>
    <vehicle id="321" depart="449.40">
        <route edges="-gneE6 -gneE3"/>
    </vehicle>
    <vehicle id="322" depart="450.80">
        <route edges="gneE3 -gneE2"/>
    </vehicle>
    <vehicle id="323" depart="452.20">
        <route edges="gneE3 gneE4"/>
    </vehicle>
    <vehicle id="324" depart="453.60">
        <route edges="gneE2 -gneE3"/>
    </vehicle>
    <vehicle id="326" depart="456.40">
        <route edges="gneE2 -gneE3"/>
    </vehicle>
    <vehicle id="328" depart="459.20">
        <route edges="gneE2 gneE4"/>
    </vehicle>
    <vehicle id="330" depart="462.00">
        <route edges="-gneE4 -gneE3"/>
    </vehicle>
    <vehicle id="331" depart="463.40">
        <route edges="gneE3 -gneE2"/>
    </vehicle>
    <vehicle id="332" depart="464.80">
        <route edges="gneE2 -gneE3"/>
    </vehicle>
    <vehicle id="333" depart="466.20">
        <route edges="gneE2 gneE6"/>
    </vehicle>
    <vehicle id="334" depart="467.60">
        <route edges="gneE3 gneE4"/>
    </vehicle>
    <vehicle id="336" depart="470.40">
        <route edges="gneE3 gneE4"/>
    </vehicle>
    <vehicle id="337" depart="471.80">
        <route edges="gneE3 gneE6"/>
    </vehicle>
    <vehicle id="339" depart="474.60">
        <route edges="gneE3 -gneE2"/>
    </vehicle>
    <vehicle id="343" depart="480.20">
        <route edges="-gneE4 -gneE2"/>
    </vehicle>
    <vehicle id="344" depart="481.60">
        <route edges="-gneE6 -gneE3"/>
    </vehicle>
    <vehicle id="345" depart="483.00">
        <route edges="-gneE4 -gneE3"/>
    </vehicle>
    <vehicle id="346" depart="484.40">
        <route edges="-gneE6 -gneE3"/>
    </vehicle>
    <vehicle id="347" depart="485.80">
        <route edges="-gneE4 gneE6"/>
    </vehicle>
    <vehicle id="348" depart="487.20">
        <route edges="gneE3 gneE6"/>
    </vehicle>
    <vehicle id="349" depart="488.60">
        <route edges="gneE3 -gneE2"/>
    </vehicle>
    <vehicle id="350" depart="490.00">
        <route edges="-gneE4 gneE6"/>
    </vehicle>
    <vehicle id="351" depart="491.40">
        <route edges="gneE2 gneE4"/>
    </vehicle>
    <vehicle id="352" depart="492.80">
        <route edges="gneE3 -gneE2"/>
    </vehicle>
    <vehicle id="354" depart="495.60">
        <route edges="-gneE4 gneE6"/>
    </vehicle>
    <vehicle id="355" depart="497.00">
        <route edges="gneE3 gneE6"/>
    </vehicle>
    <vehicle id="356" depart="498.40">
        <route edges="-gneE4 gneE6"/>
    </vehicle>
    <vehicle id="361" depart="505.40">
        <route edges="-gneE4 gneE6"/>
    </vehicle>
    <vehicle id="362" depart="506.80">
        <route edges="gneE2 -gneE3"/>
    </vehicle>
    <vehicle id="363" depart="508.20">
        <route edges="gneE2 -gneE3"/>
    </vehicle>
    <vehicle id="364" depart="509.60">
        <route edges="-gneE4 -gneE3"/>
    </vehicle>
    <vehicle id="365" depart="511.00">
        <route edges="-gneE4 -gneE2"/>
    </vehicle>
    <vehicle id="368" depart="515.20">
        <route edges="gneE2 gneE4"/>
    </vehicle>
    <vehicle id="370" depart="518.00">
        <route edges="gneE3 gneE4"/>
    </vehicle>
    <vehicle id="373" depart="522.20">
        <route edges="-gneE6 -gneE3"/>
    </vehicle>
    <vehicle id="374" depart="523.60">
        <route edges="-gneE4 -gneE3"/>
    </vehicle>
    <vehicle id="375" depart="525.00">
        <route edges="gneE2 -gneE3"/>
    </vehicle>
    <vehicle id="376" depart="526.40">
        <route edges="-gneE6 -gneE3"/>
    </vehicle>
    <vehicle id="377" depart="527.80">
        <route edges="-gneE6 gneE4"/>
    </vehicle>
    <vehicle id="379" depart="530.60">
        <route edges="gneE2 gneE4"/>
    </vehicle>
    <vehicle id="380" depart="532.00">
        <route edges="-gneE6 -gneE3"/>
    </vehicle>
    <vehicle id="381" depart="533.40">
        <route edges="gneE2 gneE6"/>
    </vehicle>
    <vehicle id="382" depart="534.80">
        <route edges="gneE3 -gneE2"/>
    </vehicle>
    <vehicle id="383" depart="536.20">
        <route edges="-gneE4 -gneE2"/>
    </vehicle>
    <vehicle id="384" depart="537.60">
        <route edges="-gneE6 -gneE3"/>
    </vehicle>
    <vehicle id="385" depart="539.00">
        <route edges="-gneE4 gneE6"/>
    </vehicle>
    <vehicle id="387" depart="541.80">
        <route edges="gneE2 -gneE3"/>
    </vehicle>
    <vehicle id="388" depart="543.20">
        <route edges="-gneE6 -gneE2"/>
    </vehicle>
    <vehicle id="389" depart="544.60">
        <route edges="-gneE6 -gneE3"/>
    </vehicle>
    <vehicle id="390" depart="546.00">
        <route edges="-gneE6 -gneE3"/>
    </vehicle>
    <vehicle id="391" depart="547.40">
        <route edges="-gneE4 -gneE2"/>
    </vehicle>
    <vehicle id="393" depart="550.20">
        <route edges="-gneE6 -gneE3"/>
    </vehicle>
    <vehicle id="395" depart="553.00">
        <route edges="-gneE4 -gneE2"/>
    </vehicle>
    <vehicle id="396" depart="554.40">
        <route edges="-gneE4 gneE6"/>
    </vehicle>
    <vehicle id="397" depart="555.80">
        <route edges="-gneE6 -gneE3"/>
    </vehicle>
    <vehicle id="398" depart="557.20">
        <route edges="-gneE4 gneE6"/>
    </vehicle>
    <vehicle id="400" depart="560.00">
        <route edges="-gneE4 -gneE3"/>
    </vehicle>
    <vehicle id="401" depart="561.40">
        <route edges="gneE3 gneE6"/>
    </vehicle>
    <vehicle id="403" depart="564.20">
        <route edges="-gneE4 -gneE2"/>
    </vehicle>
    <vehicle id="404" depart="565.60">
        <route edges="gneE3 gneE4"/>
    </vehicle>
    <vehicle id="405" depart="567.00">
        <route edges="-gneE6 -gneE3"/>
    </vehicle>
    <vehicle id="406" depart="568.40">
        <route edges="-gneE6 -gneE3"/>
    </vehicle>
    <vehicle id="407" depart="569.80">
        <route edges="-gneE4 -gneE3"/>
    </vehicle>
    <vehicle id="408" depart="571.20">
        <route edges="gneE2 gneE4"/>
    </vehicle>
    <vehicle id="409" depart="572.60">
        <route edges="-gneE4 -gneE3"/>
    </vehicle>
    <vehicle id="410" depart="574.00">
        <route edges="gneE2 gneE6"/>
    </vehicle>
    <vehicle id="411" depart="575.40">
        <route edges="gneE3 -gneE2"/>
    </vehicle>
    <vehicle id="412" depart="576.80">
        <route edges="-gneE6 gneE4"/>
    </vehicle>
    <vehicle id="414" depart="579.60">
        <route edges="-gneE6 -gneE3"/>
    </vehicle>
    <vehicle id="415" depart="581.00">
        <route edges="-gneE4 -gneE3"/>
    </vehicle>
    <vehicle id="416" depart="582.40">
        <route edges="-gneE6 -gneE2"/>
    </vehicle>
    <vehicle id="417" depart="583.80">
        <route edges="gneE3 gneE4"/>
    </vehicle>
    <vehicle id="418" depart="585.20">
        <route edges="gneE2 gneE6"/>
    </vehicle>
    <vehicle id="419" depart="586.60">
        <route edges="-gneE6 -gneE3"/>
    </vehicle>
    <vehicle id="420" depart="588.00">
        <route edges="gneE3 gneE6"/>
    </vehicle>