<?xml version="1.0" encoding="UTF-8"?>

<!-- generated on Sun May  6 21:00:32 2018 by SUMO duarouter Version 0.30.0
<?xml version="1.0" encoding="UTF-8"?>

<configuration xmlns:xsi="http://www.w3.org/2001/XMLSchema-instance" xsi:noNamespaceSchemaLocation="http://sumo.dlr.de/xsd/duarouterConfiguration.xsd">

    <input>
        <net-file value="cross/cross.net.xml"/>
        <route-files value="trips.trips.xml"/>
    </input>

    <output>
        <output-file value="cross/route/cross-2.2-8.rou.xml"/>
    </output>

    <processing>
        <ignore-errors value="true"/>
    </processing>

    <time>
        <begin value="0.0"/>
        <end value="1000.0"/>
    </time>

    <report>
        <no-warnings value="true"/>
        <no-step-log value="true"/>
    </report>

</configuration>
-->

<routes xmlns:xsi="http://www.w3.org/2001/XMLSchema-instance" xsi:noNamespaceSchemaLocation="http://sumo.dlr.de/xsd/routes_file.xsd">
    <vehicle id="0" depart="0.00">
        <route edges="gneE3 gneE6"/>
    </vehicle>
    <vehicle id="2" depart="4.40">
        <route edges="gneE2 gneE4"/>
    </vehicle>
    <vehicle id="5" depart="11.00">
        <route edges="gneE2 gneE6"/>
    </vehicle>
    <vehicle id="7" depart="15.40">
        <route edges="gneE2 gneE4"/>
    </vehicle>
    <vehicle id="8" depart="17.60">
        <route edges="-gneE4 -gneE2"/>
    </vehicle>
    <vehicle id="9" depart="19.80">
        <route edges="-gneE6 -gneE2"/>
    </vehicle>
    <vehicle id="10" depart="22.00">
        <route edges="gneE2 -gneE3"/>
    </vehicle>
    <vehicle id="12" depart="26.40">
        <route edges="gneE2 gneE4"/>
    </vehicle>
    <vehicle id="13" depart="28.60">
        <route edges="gneE2 gneE4"/>
    </vehicle>
    <vehicle id="14" depart="30.80">
        <route edges="-gneE4 gneE6"/>
    </vehicle>
    <vehicle id="15" depart="33.00">
        <route edges="gneE3 gneE4"/>
    </vehicle>
    <vehicle id="16" depart="35.20">
        <route edges="-gneE4 gneE6"/>
    </vehicle>
    <vehicle id="17" depart="37.40">
        <route edges="-gneE4 -gneE2"/>
    </vehicle>
    <vehicle id="18" depart="39.60">
        <route edges="-gneE4 -gneE2"/>
    </vehicle>
    <vehicle id="20" depart="44.00">
        <route edges="-gneE4 -gneE3"/>
    </vehicle>
    <vehicle id="21" depart="46.20">
        <route edges="-gneE6 -gneE2"/>
    </vehicle>
    <vehicle id="22" depart="48.40">
        <route edges="gneE2 gneE4"/>
    </vehicle>
    <vehicle id="23" depart="50.60">
        <route edges="-gneE6 -gneE3"/>
    </vehicle>
    <vehicle id="24" depart="52.80">
        <route edges="gneE3 gneE4"/>
    </vehicle>
    <vehicle id="26" depart="57.20">
        <route edges="gneE3 gneE4"/>
    </vehicle>
    <vehicle id="27" depart="59.40">
        <route edges="-gneE4 gneE6"/>
    </vehicle>
    <vehicle id="30" depart="66.00">
        <route edges="gneE2 gneE4"/>
    </vehicle>
    <vehicle id="31" depart="68.20">
        <route edges="gneE3 gneE6"/>
    </vehicle>
    <vehicle id="32" depart="70.40">
        <route edges="-gneE4 -gneE3"/>
    </vehicle>
    <vehicle id="33" depart="72.60">
        <route edges="gneE2 -gneE3"/>
    </vehicle>
    <vehicle id="36" depart="79.20">
        <route edges="gneE2 gneE4"/>
    </vehicle>
    <vehicle id="39" depart="85.80">
        <route edges="-gneE6 -gneE2"/>
    </vehicle>
    <vehicle id="43" depart="94.60">
        <route edges="-gneE6 -gneE3"/>
    </vehicle>
    <vehicle id="45" depart="99.00">
        <route edges="-gneE6 -gneE2"/>
    </vehicle>
    <vehicle id="46" depart="101.20">
        <route edges="-gneE4 -gneE3"/>
    </vehicle>
    <vehicle id="47" depart="103.40">
        <route edges="-gneE6 gneE4"/>
    </vehicle>
    <vehicle id="48" depart="105.60">
        <route edges="-gneE4 -gneE2"/>
    </vehicle>
    <vehicle id="49" depart="107.80">
        <route edges="-gneE4 gneE6"/>
    </vehicle>
    <vehicle id="50" depart="110.00">
        <route edges="gneE2 gneE6"/>
    </vehicle>
    <vehicle id="51" depart="112.20">
        <route edges="-gneE6 gneE4"/>
    </vehicle>
    <vehicle id="52" depart="114.40">
        <route edges="gneE3 gneE6"/>
    </vehicle>
    <vehicle id="53" depart="116.60">
        <route edges="gneE3 gneE6"/>
    </vehicle>
    <vehicle id="55" depart="121.00">
        <route edges="gneE3 gneE6"/>
    </vehicle>
    <vehicle id="56" depart="123.20">
        <route edges="-gneE4 -gneE3"/>
    </vehicle>
    <vehicle id="57" depart="125.40">
        <route edges="gneE3 -gneE2"/>
    </vehicle>
    <vehicle id="58" depart="127.60">
        <route edges="-gneE4 -gneE3"/>
    </vehicle>
    <vehicle id="59" depart="129.80">
        <route edges="gneE3 gneE6"/>
    </vehicle>
    <vehicle id="60" depart="132.00">
        <route edges="gneE2 -gneE3"/>
    </vehicle>
    <vehicle id="61" depart="134.20">
        <route edges="-gneE4 -gneE3"/>
    </vehicle>
    <vehicle id="64" depart="140.80">
        <route edges="-gneE6 -gneE3"/>
    </vehicle>
    <vehicle id="65" depart="143.00">
        <route edges="-gneE6 gneE4"/>
    </vehicle>
    <vehicle id="66" depart="145.20">
        <route edges="-gneE6 gneE4"/>
    </vehicle>
    <vehicle id="67" depart="147.40">
        <route edges="-gneE6 -gneE3"/>
    </vehicle>
    <vehicle id="68" depart="149.60">
        <route edges="gneE3 -gneE2"/>
    </vehicle>
    <vehicle id="70" depart="154.00">
        <route edges="gneE3 -gneE2"/>
    </vehicle>
    <vehicle id="72" depart="158.40">
        <route edges="gneE2 gneE4"/>
    </vehicle>
    <vehicle id="74" depart="162.80">
        <route edges="gneE2 gneE6"/>
    </vehicle>
    <vehicle id="75" depart="165.00">
        <route edges="gneE3 gneE6"/>
    </vehicle>
    <vehicle id="76" depart="167.20">
        <route edges="-gneE6 gneE4"/>
    </vehicle>
    <vehicle id="77" depart="169.40">
        <route edges="gneE2 gneE6"/>
    </vehicle>
    <vehicle id="78" depart="171.60">
        <route edges="-gneE4 -gneE2"/>
    </vehicle>
    <vehicle id="79" depart="173.80">
        <route edges="-gneE4 -gneE3"/>
    </vehicle>
    <vehicle id="81" depart="178.20">
        <route edges="gneE3 gneE4"/>
    </vehicle>
    <vehicle id="83" depart="182.60">
        <route edges="-gneE4 gneE6"/>
    </vehicle>
    <vehicle id="85" depart="187.00">
        <route edges="-gneE6 gneE4"/>
    </vehicle>
    <vehicle id="86" depart="189.20">
        <route edges="-gneE4 gneE6"/>
    </vehicle>
    <vehicle id="87" depart="191.40">
        <route edges="-gneE4 gneE6"/>
    </vehicle>
    <vehicle id="88" depart="193.60">
        <route edges="gneE3 -gneE2"/>
    </vehicle>
    <vehicle id="89" depart="195.80">
        <route edges="-gneE6 -gneE3"/>
    </vehicle>
    <vehicle id="90" depart="198.00">
        <route edges="-gneE6 -gneE2"/>
    </vehicle>
    <vehicle id="92" depart="202.40">
        <route edges="gneE2 -gneE3"/>
    </vehicle>
    <vehicle id="93" depart="204.60">
        <route edges="gneE3 gneE6"/>
    </vehicle>
    <vehicle id="94" depart="206.80">
        <route edges="-gneE6 -gneE3"/>
    </vehicle>
    <vehicle id="96" depart="211.20">
        <route edges="gneE3 gneE6"/>
    </vehicle>
    <vehicle id="97" depart="213.40">
        <route edges="gneE2 gneE4"/>
    </vehicle>
    <vehicle id="98" depart="215.60">
        <route edges="gneE2 gneE6"/>
    </vehicle>
    <vehicle id="99" depart="217.80">
        <route edges="gneE2 -gneE3"/>
    </vehicle>
    <vehicle id="101" depart="222.20">
        <route edges="gneE3 gneE6"/>
    </vehicle>
    <vehicle id="103" depart="226.60">
        <route edges="gneE2 gneE4"/>
    </vehicle>
    <vehicle id="104" depart="228.80">
        <route edges="gneE3 gneE4"/>
    </vehicle>
    <vehicle id="105" depart="231.00">
        <route edges="gneE3 gneE6"/>
    </vehicle>
    <vehicle id="106" depart="233.20">
        <route edges="-gneE4 -gneE3"/>
    </vehicle>
    <vehicle id="107" depart="235.40">
        <route edges="gneE3 gneE6"/>
    </vehicle>
    <vehicle id="108" depart="237.60">
        <route edges="-gneE6 gneE4"/>
    </vehicle>
    <vehicle id="109" depart="239.80">
        <route edges="gneE2 -gneE3"/>
    </vehicle>
    <vehicle id="110" depart="242.00">
        <route edges="gneE3 gneE4"/>
    </vehicle>
    <vehicle id="111" depart="244.20">
        <route edges="-gneE6 -gneE3"/>
    </vehicle>
    <vehicle id="112" depart="246.40">
        <route edges="gneE2 -gneE3"/>
    </vehicle>
    <vehicle id="113" depart="248.60">
        <route edges="-gneE6 -gneE2"/>
    </vehicle>
    <vehicle id="115" depart="253.00">
        <route edges="-gneE6 -gneE2"/>
    </vehicle>
    <vehicle id="116" depart="255.20">
        <route edges="-gneE6 -gneE3"/>
    </vehicle>
    <vehicle id="117" depart="257.40">
        <route edges="-gneE6 gneE4"/>
    </vehicle>
    <vehicle id="119" depart="261.80">
        <route edges="gneE3 gneE6"/>
    </vehicle>
    <vehicle id="120" depart="264.00">
        <route edges="-gneE6 -gneE3"/>
    </vehicle>
    <vehicle id="121" depart="266.20">
        <route edges="-gneE4 gneE6"/>
    </vehicle>
    <vehicle id="123" depart="270.60">
        <route edges="-gneE4 -gneE2"/>
    </vehicle>
    <vehicle id="124" depart="272.80">
        <route edges="gneE3 gneE6"/>
    </vehicle>
    <vehicle id="125" depart="275.00">
        <route edges="gneE3 gneE4"/>
    </vehicle>
    <vehicle id="126" depart="277.20">
        <route edges="gneE2 gneE4"/>
    </vehicle>
    <vehicle id="127" depart="279.40">
        <route edges="-gneE4 -gneE3"/>
    </vehicle>
    <vehicle id="128" depart="281.60">
        <route edges="gneE2 gneE4"/>
    </vehicle>
    <vehicle id="129" depart="283.80">
        <route edges="-gneE6 -gneE2"/>
    </vehicle>
    <vehicle id="130" depart="286.00">
        <route edges="-gneE6 -gneE3"/>
    </vehicle>
    <vehicle id="131" depart="288.20">
        <route edges="gneE2 -gneE3"/>
    </vehicle>
    <vehicle id="133" depart="292.60">
        <route edges="-gneE6 -gneE2"/>
    </vehicle>
    <vehicle id="134" depart="294.80">
        <route edges="-gneE4 -gneE3"/>
    </vehicle>
    <vehicle id="135" depart="297.00">
        <route edges="gneE3 gneE6"/>
    </vehicle>
    <vehicle id="136" depart="299.20">
        <route edges="gneE2 gneE6"/>
    </vehicle>
    <vehicle id="139" depart="305.80">
        <route edges="gneE2 gneE4"/>
    </vehicle>
    <vehicle id="140" depart="308.00">
        <route edges="gneE3 -gneE2"/>
    </vehicle>
    <vehicle id="142" depart="312.40">
        <route edges="gneE3 gneE4"/>
    </vehicle>
    <vehicle id="143" depart="314.60">
        <route edges="-gneE6 -gneE3"/>
    </vehicle>
    <vehicle id="144" depart="316.80">
        <route edges="-gneE4 -gneE3"/>
    </vehicle>
    <vehicle id="145" depart="319.00">
        <route edges="-gneE6 -gneE2"/>
    </vehicle>
    <vehicle id="146" depart="321.20">
        <route edges="-gneE4 gneE6"/>
    </vehicle>
    <vehicle id="147" depart="323.40">
        <route edges="-gneE4 -gneE3"/>
    </vehicle>
    <vehicle id="148" depart="325.60">
        <route edges="gneE3 -gneE2"/>
    </vehicle>
    <vehicle id="150" depart="330.00">
        <route edges="gneE3 gneE4"/>
    </vehicle>
    <vehicle id="151" depart="332.20">
        <route edges="-gneE4 gneE6"/>
    </vehicle>
    <vehicle id="153" depart="336.60">
        <route edges="-gneE6 -gneE3"/>
    </vehicle>
    <vehicle id="155" depart="341.00">
        <route edges="gneE3 gneE6"/>
    </vehicle>
    <vehicle id="157" depart="345.40">
        <route edges="gneE2 gneE4"/>
    </vehicle>
    <vehicle id="158" depart="347.60">
        <route edges="gneE3 gneE4"/>
    </vehicle>
    <vehicle id="159" depart="349.80">
        <route edges="gneE3 gneE6"/>
    </vehicle>
    <vehicle id="162" depart="356.40">
        <route edges="gneE2 gneE6"/>
    </vehicle>
    <vehicle id="163" depart="358.60">
        <route edges="-gneE4 gneE6"/>
    </vehicle>
    <vehicle id="164" depart="360.80">
        <route edges="gneE2 gneE4"/>
    </vehicle>
    <vehicle id="165" depart="363.00">
        <route edges="gneE2 gneE4"/>
    </vehicle>
    <vehicle id="166" depart="365.20">
        <route edges="-gneE4 gneE6"/>
    </vehicle>
    <vehicle id="167" depart="367.40">
        <route edges="-gneE4 gneE6"/>
    </vehicle>
    <vehicle id="169" depart="371.80">
        <route edges="gneE3 -gneE2"/>
    </vehicle>
    <vehicle id="170" depart="374.00">
        <route edges="gneE2 -gneE3"/>
    </vehicle>
    <vehicle id="171" depart="376.20">
        <route edges="-gneE4 gneE6"/>
    </vehicle>
    <vehicle id="172" depart="378.40">
        <route edges="-gneE4 -gneE2"/>
    </vehicle>
    <vehicle id="173" depart="380.60">
        <route edges="gneE2 gneE4"/>
    </vehicle>
    <vehicle id="175" depart="385.00">
        <route edges="-gneE4 -gneE2"/>
    </vehicle>
    <vehicle id="176" depart="387.20">
        <route edges="gneE2 gneE6"/>
    </vehicle>
    <vehicle id="178" depart="391.60">
        <route edges="gneE3 -gneE2"/>
    </vehicle>
    <vehicle id="179" depart="393.80">
        <route edges="gneE3 -gneE2"/>
    </vehicle>
    <vehicle id="180" depart="396.00">
        <route edges="gneE3 gneE6"/>
    </vehicle>
    <vehicle id="182" depart="400.40">
        <route edges="-gneE6 -gneE3"/>
    </vehicle>
    <vehicle id="183" depart="402.60">
        <route edges="gneE3 -gneE2"/>
    </vehicle>
    <vehicle id="184" depart="404.80">
        <route edges="gneE2 -gneE3"/>
    </vehicle>
    <vehicle id="185" depart="407.00">
        <route edges="gneE2 -gneE3"/>
    </vehicle>
    <vehicle id="186" depart="409.20">
        <route edges="gneE3 -gneE2"/>
    </vehicle>
    <vehicle id="187" depart="411.40">
        <route edges="-gneE4 -gneE3"/>
    </vehicle>
    <vehicle id="188" depart="413.60">
        <route edges="-gneE6 -gneE3"/>
    </vehicle>
    <vehicle id="189" depart="415.80">
        <route edges="gneE3 -gneE2"/>
    </vehicle>
    <vehicle id="190" depart="418.00">
        <route edges="-gneE4 -gneE3"/>
    </vehicle>
    <vehicle id="191" depart="420.20">
        <route edges="gneE2 gneE4"/>
    </vehicle>
    <vehicle id="195" depart="429.00">
        <route edges="gneE3 gneE6"/>
    </vehicle>
    <vehicle id="196" depart="431.20">
        <route edges="-gneE4 -gneE3"/>
    </vehicle>
    <vehicle id="197" depart="433.40">
        <route edges="-gneE4 -gneE2"/>
    </vehicle>
    <vehicle id="198" depart="435.60">
        <route edges="-gneE4 gneE6"/>
    </vehicle>
    <vehicle id="199" depart="437.80">
        <route edges="gneE2 gneE6"/>
    </vehicle>
    <vehicle id="200" depart="440.00">
        <route edges="gneE2 gneE4"/>
    </vehicle>
    <vehicle id="201" depart="442.20">
        <route edges="gneE2 gneE4"/>
    </vehicle>
    <vehicle id="202" depart="444.40">
        <route edges="gneE2 gneE4"/>
    </vehicle>
    <vehicle id="203" depart="446.60">
        <route edges="gneE3 gneE4"/>
    </vehicle>
    <vehicle id="204" depart="448.80">
        <route edges="-gneE6 -gneE3"/>
    </vehicle>
    <vehicle id="205" depart="451.00">
        <route edges="gneE3 -gneE2"/>
    </vehicle>
    <vehicle id="206" depart="453.20">
        <route edges="-gneE6 -gneE3"/>
    </vehicle>
    <vehicle id="207" depart="455.40">
        <route edges="-gneE4 -gneE3"/>
    </vehicle>
    <vehicle id="208" depart="457.60">
        <route edges="-gneE4 gneE6"/>
    </vehicle>
    <vehicle id="209" depart="459.80">
        <route edges="gneE3 gneE6"/>
    </vehicle>
    <vehicle id="210" depart="462.00">
        <route edges="gneE3 -gneE2"/>
    </vehicle>
    <vehicle id="211" depart="464.20">
        <route edges="-gneE6 -gneE3"/>
    </vehicle>
    <vehicle id="212" depart="466.40">
        <route edges="-gneE6 gneE4"/>
    </vehicle>
    <vehicle id="214" depart="470.80">
        <route edges="-gneE4 -gneE3"/>
    </vehicle>
    <vehicle id="215" depart="473.00">
        <route edges="gneE3 gneE6"/>
    </vehicle>
    <vehicle id="216" depart="475.20">
        <route edges="gneE2 -gneE3"/>
    </vehicle>
    <vehicle id="217" depart="477.40">
        <route edges="gneE2 gneE6"/>
    </vehicle>
    <vehicle id="219" depart="481.80">
        <route edges="gneE3 gneE4"/>
    </vehicle>
    <vehicle id="220" depart="484.00">
        <route edges="gneE3 gneE4"/>
    </vehicle>
    <vehicle id="221" depart="486.20">
        <route edges="gneE2 -gneE3"/>
    </vehicle>
    <vehicle id="222" depart="488.40">
        <route edges="gneE3 gneE4"/>
    </vehicle>
    <vehicle id="224" depart="492.80">
        <route edges="-gneE6 -gneE3"/>
    </vehicle>
    <vehicle id="225" depart="495.00">
        <route edges="gneE3 gneE6"/>
    </vehicle>
    <vehicle id="227" depart="499.40">
        <route edges="-gneE4 gneE6"/>
    </vehicle>
    <vehicle id="228" depart="501.60">
        <route edges="-gneE4 gneE6"/>
    </vehicle>
    <vehicle id="229" depart="503.80">
        <route edges="-gneE6 -gneE3"/>
    </vehicle>
    <vehicle id="230" depart="506.00">
        <route edges="-gneE4 -gneE3"/>
    </vehicle>
    <vehicle id="231" depart="508.20">
        <route edges="-gneE6 gneE4"/>
    </vehicle>
    <vehicle id="233" depart="512.60">
        <route edges="-gneE6 -gneE3"/>
    </vehicle>
    <vehicle id="236" depart="519.20">
        <route edges="-gneE4 -gneE3"/>
    </vehicle>
    <vehicle id="237" depart="521.40">
        <route edges="gneE2 gneE4"/>
    </vehicle>
    <vehicle id="238" depart="523.60">
        <route edges="gneE3 -gneE2"/>
    </vehicle>
    <vehicle id="239" depart="525.80">
        <route edges="gneE3 -gneE2"/>
    </vehicle>
    <vehicle id="240" depart="528.00">
        <route edges="-gneE4 gneE6"/>
    </vehicle>
    <vehicle id="241" depart="530.20">
        <route edges="gneE3 gneE4"/>
    </vehicle>
    <vehicle id="242" depart="532.40">
        <route edges="gneE3 gneE6"/>
    </vehicle>
    <vehicle id="243" depart="534.60">
        <route edges="gneE2 -gneE3"/>
    </vehicle>
    <vehicle id="244" depart="536.80">
        <route edges="gneE2 gneE4"/>
    </vehicle>
    <vehicle id="245" depart="539.00">
        <route edges="gneE3 -gneE2"/>
    </vehicle>
    <vehicle id="247" depart="543.40">
        <route edges="-gneE6 -gneE2"/>
    </vehicle>
    <vehicle id="248" depart="545.60">
        <route edges="-gneE4 -gneE3"/>
    </vehicle>
    <vehicle id="250" depart="550.00">
        <route edges="-gneE6 -gneE3"/>
    </vehicle>
    <vehicle id="251" depart="552.20">
        <route edges="gneE3 -gneE2"/>
    </vehicle>
    <vehicle id="252" depart="554.40">
        <route edges="gneE3 -gneE2"/>
    </vehicle>
    <vehicle id="253" depart="556.60">
        <route edges="gneE3 gneE6"/>
    </vehicle>
    <vehicle id="254" depart="558.80">
        <route edges="gneE2 -gneE3"/>
    </vehicle>
    <vehicle id="255" depart="561.00">
        <route edges="-gneE4 -gneE3"/>
    </vehicle>
    <vehicle id="257" depart="565.40">
        <route edges="gneE3 -gneE2"/>
    </vehicle>
    <vehicle id="258" depart="567.60">
        <route edges="gneE3 gneE6"/>
    </vehicle>
    <vehicle id="259" depart="569.80">
        <route edges="-gneE6 -gneE2"/>
    </vehicle>
    <vehicle id="261" depart="574.20">
        <route edges="gneE2 -gneE3"/>
    </vehicle>
    <vehicle id="262" depart="576.40">
        <route edges="gneE2 -gneE3"/>
    </vehicle>
    <vehicle id="263" depart="578.60">
        <route edges="-gneE6 -gneE2"/>
    </vehicle>
    <vehicle id="264" depart="580.80">
        <route edges="-gneE4 gneE6"/>
    </vehicle>
    <vehicle id="265" depart="583.00">
        <route edges="-gneE4 -gneE3"/>
    </vehicle>
    <vehicle id="266" depart="585.20">
        <route edges="-gneE4 -gneE2"/>
    </vehicle>
    <vehicle id="267" depart="587.40">
        <route edges="-gneE6 -gneE3"/>
    </vehicle>
    <vehicle id="268" depart="589.60">
        <route edges="-gneE6 gneE4"/>
    </vehicle>
    <vehicle id="269" depart="591.80">
        <route edges="gneE2 -gneE3"/>
    </vehicle>
    <vehicle id="270" depart="594.00">
        <route edges="gneE2 -gneE3"/>
    </vehicle>
    <vehicle id="271" depart="596.20">
        <route edges="gneE2 -gneE3"/>
    </vehicle>
    <vehicle id="272" depart="598.40">
        <route edges="gneE3 gneE4"/>
    </vehicle>
    <vehicle id="273" depart="600.60">
        <route edges="gneE3 gneE6"/>
    </vehicle>
    <vehicle id="274" depart="602.80">
        <route edges="gneE3 gneE4"/>
    </vehicle>
    <vehicle id="276" depart="607.20">
        <route edges="-gneE4 -gneE2"/>
    </vehicle>
    <vehicle id="277" depart="609.40">
        <route edges="gneE3 gneE6"/>
    </vehicle>
    <vehicle id="278" depart="611.60">
        <route edges="-gneE4 -gneE2"/>
    </vehicle>
    <vehicle id="279" depart="613.80">
        <route edges="-gneE6 -gneE2"/>
    </vehicle>
    <vehicle id="282" depart="620.40">
        <route edges="gneE3 gneE4"/>
    </vehicle>
    <vehicle id="285" depart="627.00">
        <route edges="-gneE4 -gneE3"/>
    </vehicle>
    <vehicle id="286" depart="629.20">
        <route edges="gneE3 gneE4"/>
    </vehicle>
    <vehicle id="287" depart="631.40">
        <route edges="-gneE6 -gneE3"/>
    </vehicle>
    <vehicle id="289" depart="635.80">
        <route edges="-gneE4 gneE6"/>
    </vehicle>
    <vehicle id="290" depart="638.00">
        <route edges="-gneE6 gneE4"/>
    </vehicle>
    <vehicle id="291" depart="640.20">
        <route edges="gneE2 gneE6"/>
    </vehicle>
    <vehicle id="292" depart="642.40">
        <route edges="-gneE4 -gneE2"/>
    </vehicle>
    <vehicle id="294" depart="646.80">
        <route edges="gneE3 gneE6"/>
    </vehicle>
    <vehicle id="295" depart="649.00">
        <route edges="gneE2 gneE6"/>
    </vehicle>
    <vehicle id="296" depart="651.20">
        <route edges="gneE2 gneE4"/>
    </vehicle>
    <vehicle id="298" depart="655.60">
        <route edges="gneE3 gneE6"/>
    </vehicle>
    <vehicle id="299" depart="657.80">
        <route edges="gneE2 gneE4"/>
    </vehicle>
    <vehicle id="300" depart="660.00">
        <route edges="gneE2 gneE4"/>
    </vehicle>
    <vehicle id="301" depart="662.20">
        <route edges="gneE3 -gneE2"/>
    </vehicle>
    <vehicle id="302" depart="664.40">
        <route edges="gneE3 gneE6"/>
    </vehicle>
    <vehicle id="303" depart="666.60">
        <route edges="gneE3 -gneE2"/>
    </vehicle>
    <vehicle id="304" depart="668.80">
        <route edges="-gneE6 -gneE3"/>
    </vehicle>
    <vehicle id="305" depart="671.00">
        <route edges="gneE2 -gneE3"/>
    </vehicle>
    <vehicle id="306" depart="673.20">
        <route edges="-gneE6 gneE4"/>
    </vehicle>
    <vehicle id="307" depart="675.40">
        <route edges="gneE3 gneE4"/>
    </vehicle>
    <vehicle id="308" depart="677.60">
        <route edges="gneE2 gneE4"/>
    </vehicle>
    <vehicle id="309" depart="679.80">
        <route edges="-gneE6 -gneE2"/>
    </vehicle>
    <vehicle id="310" depart="682.00">
        <route edges="-gneE4 -gneE2"/>
    </vehicle>
    <vehicle id="311" depart="684.20">
        <route edges="-gneE4 -gneE3"/>
    </vehicle>
    <vehicle id="312" depart="686.40">
        <route edges="gneE2 gneE6"/>
    </vehicle>
    <vehicle id="313" depart="688.60">
        <route edges="-gneE6 -gneE3"/>
    </vehicle>
    <vehicle id="314" depart="690.80">
        <route edges="-gneE4 -gneE3"/>
    </vehicle>
    <vehicle id="315" depart="693.00">
        <route edges="-gneE6 gneE4"/>
    </vehicle>
    <vehicle id="316" depart="695.20">
        <route edges="-gneE4 -gneE2"/>
    </vehicle>
    <vehicle id="319" depart="701.80">
        <route edges="-gneE4 gneE6"/>
    </vehicle>
    <vehicle id="320" depart="704.00">
        <route edges="-gneE4 -gneE3"/>
    </vehicle>
    <vehicle id="322" depart="708.40">
        <route edges="gneE2 gneE4"/>
    </vehicle>
    <vehicle id="323" depart="710.60">
        <route edges="-gneE4 -gneE3"/>
    </vehicle>
    <vehicle id="324" depart="712.80">
        <route edges="gneE2 gneE6"/>
    </vehicle>
    <vehicle id="325" depart="715.00">
        <route edges="-gneE6 -gneE3"/>
    </vehicle>
    <vehicle id="327" depart="719.40">
        <route edges="gneE2 gneE6"/>
    </vehicle>
    <vehicle id="331" depart="728.20">
        <route edges="-gneE4 -gneE3"/>
    </vehicle>
    <vehicle id="333" depart="732.60">
        <route edges="gneE2 gneE6"/>
    </vehicle>
    <vehicle id="334" depart="734.80">
        <route edges="gneE3 gneE4"/>
    </vehicle>
    <vehicle id="335" depart="737.00">
        <route edges="gneE2 -gneE3"/>
    </vehicle>
    <vehicle id="336" depart="739.20">
        <route edges="gneE2 gneE4"/>
    </vehicle>
    <vehicle id="337" depart="741.40">
        <route edges="-gneE6 gneE4"/>
    </vehicle>
    <vehicle id="338" depart="743.60">
        <route edges="-gneE4 gneE6"/>
    </vehicle>
    <vehicle id="339" depart="745.80">
        <route edges="-gneE6 -gneE2"/>
    </vehicle>
    <vehicle id="340" depart="748.00">
        <route edges="gneE3 gneE4"/>
    </vehicle>
    <vehicle id="341" depart="750.20">
        <route edges="gneE2 -gneE3"/>
    </vehicle>
    <vehicle id="343" depart="754.60">
        <route edges="gneE3 gneE6"/>
    </vehicle>
    <vehicle id="344" depart="756.80">
        <route edges="gneE2 -gneE3"/>
    </vehicle>
    <vehicle id="346" depart="761.20">
        <route edges="gneE3 -gneE2"/>
    </vehicle>
    <vehicle id="347" depart="763.40">
        <route edges="gneE3 gneE6"/>
    </vehicle>
    <vehicle id="348" depart="765.60">
        <route edges="gneE3 gneE6"/>
    </vehicle>
    <vehicle id="349" depart="767.80">
        <route edges="gneE3 -gneE2"/>
    </vehicle>
    <vehicle id="351" depart="772.20">
        <route edges="gneE2 gneE4"/>
    </vehicle>
    <vehicle id="352" depart="774.40">
        <route edges="-gneE6 -gneE2"/>
    </vehicle>
    <vehicle id="353" depart="776.60">
        <route edges="-gneE6 -gneE3"/>
    </vehicle>
    <vehicle id="354" depart="778.80">
        <route edges="-gneE4 -gneE2"/>
    </vehicle>
    <vehicle id="355" depart="781.00">
        <route edges="-gneE6 -gneE2"/>
    </vehicle>
    <vehicle id="356" depart="783.20">
        <route edges="-gneE6 -gneE3"/>
    </vehicle>
    <vehicle id="357" depart="785.40">
        <route edges="-gneE6 -gneE2"/>
    </vehicle>
    <vehicle id="358" depart="787.60">
        <route edges="-gneE6 -gneE2"/>
    </vehicle>
    <vehicle id="359" depart="789.80">
        <route edges="-gneE4 gneE6"/>
    </vehicle>
    <vehicle id="360" depart="792.00">
        <route edges="-gneE6 gneE4"/>
    </vehicle>
    <vehicle id="361" depart="794.20">
        <route edges="-gneE6 gneE4"/>
    </vehicle>
    <vehicle id="362" depart="796.40">
        <route edges="-gneE4 -gneE2"/>
    </vehicle>
    <vehicle id="363" depart="798.60">
        <route edges="-gneE4 -gneE2"/>
    </vehicle>
    <vehicle id="364" depart="800.80">
        <route edges="-gneE4 gneE6"/>
    </vehicle>
    <vehicle id="365" depart="803.00">
        <route edges="gneE2 gneE4"/>
    </vehicle>
    <vehicle id="368" depart="809.60">
        <route edges="gneE3 gneE6"/>
    </vehicle>
    <vehicle id="369" depart="811.80">
        <route edges="gneE2 gneE4"/>
    </vehicle>
    <vehicle id="370" depart="814.00">
        <route edges="-gneE6 -gneE2"/>
    </vehicle>
    <vehicle id="372" depart="818.40">
        <route edges="gneE2 gneE4"/>
    </vehicle>
    <vehicle id="373" depart="820.60">
        <route edges="-gneE4 -gneE2"/>
    </vehicle>
    <vehicle id="375" depart="825.00">
        <route edges="-gneE4 -gneE3"/>
    </vehicle>
    <vehicle id="376" depart="827.20">
        <route edges="gneE3 -gneE2"/>
    </vehicle>
    <vehicle id="377" depart="829.40">
        <route edges="-gneE4 gneE6"/>
    </vehicle>
    <vehicle id="378" depart="831.60">
        <route edges="gneE3 -gneE2"/>
    </vehicle>
    <vehicle id="381" depart="838.20">
        <route edges="gneE3 gneE4"/>
    </vehicle>
    <vehicle id="382" depart="840.40">
        <route edges="gneE3 gneE4"/>
    </vehicle>
    <vehicle id="384" depart="844.80">
        <route edges="-gneE6 -gneE2"/>
    </vehicle>
    <vehicle id="385" depart="847.00">
        <route edges="-gneE6 -gneE2"/>
    </vehicle>
    <vehicle id="386" depart="849.20">
        <route edges="-gneE6 gneE4"/>
    </vehicle>
    <vehicle id="387" depart="851.40">
        <route edges="-gneE6 gneE4"/>
    </vehicle>
    <vehicle id="388" depart="853.60">
        <route edges="-gneE6 -gneE3"/>
    </vehicle>
    <vehicle id="389" depart="855.80">
        <route edges="-gneE4 -gneE3"/>
    </vehicle>
    <vehicle id="390" depart="858.00">
        <route edges="-gneE4 gneE6"/>
    </vehicle>
    <vehicle id="391" depart="860.20">
        <route edges="-gneE4 -gneE3"/>
    </vehicle>
    <vehicle id="392" depart="862.40">
        <route edges="-gneE4 -gneE3"/>
    </vehicle>
    <vehicle id="393" depart="864.60">
        <route edges="gneE2 gneE4"/>
    </vehicle>
    <vehicle id="395" depart="869.00">
        <route edges="gneE2 gneE6"/>
    </vehicle>
    <vehicle id="396" depart="871.20">
        <route edges="gneE3 gneE4"/>
    </vehicle>
    <vehicle id="397" depart="873.40">
        <route edges="gneE3 gneE6"/>
    </vehicle>
    <vehicle id="398" depart="875.60">
        <route edges="-gneE6 -gneE3"/>
    </vehicle>
    <vehicle id="399" depart="877.80">
        <route edges="-gneE6 gneE4"/>
    </vehicle>
    <vehicle id="401" depart="882.20">
        <route edges="-gneE4 -gneE3"/>
    </vehicle>
    <vehicle id="402" depart="884.40">
        <route edges="-gneE6 -gneE3"/>
    </vehicle>
    <vehicle id="403" depart="886.60">
        <route edges="-gneE4 -gneE2"/>
    </vehicle>
    <vehicle id="404" depart="888.80">
        <route edges="gneE3 gneE4"/>
    </vehicle>
    <vehicle id="405" depart="891.00">
        <route edges="gneE3 gneE4"/>
    </vehicle>