<?xml version="1.0" encoding="UTF-8"?>

<!-- generated on Sun May  6 19:50:58 2018 by SUMO duarouter Version 0.30.0
<?xml version="1.0" encoding="UTF-8"?>

<configuration xmlns:xsi="http://www.w3.org/2001/XMLSchema-instance" xsi:noNamespaceSchemaLocation="http://sumo.dlr.de/xsd/duarouterConfiguration.xsd">

    <input>
        <net-file value="cross/cross.net.xml"/>
        <route-files value="trips.trips.xml"/>
    </input>

    <output>
        <output-file value="cross/route/cross-2.0-9.rou.xml"/>
    </output>

    <processing>
        <ignore-errors value="true"/>
    </processing>

    <time>
        <begin value="0.0"/>
        <end value="1000.0"/>
    </time>

    <report>
        <no-warnings value="true"/>
        <no-step-log value="true"/>
    </report>

</configuration>
-->

<routes xmlns:xsi="http://www.w3.org/2001/XMLSchema-instance" xsi:noNamespaceSchemaLocation="http://sumo.dlr.de/xsd/routes_file.xsd">
    <vehicle id="0" depart="0.00">
        <route edges="-gneE6 -gneE3"/>
    </vehicle>
    <vehicle id="1" depart="2.00">
        <route edges="-gneE4 -gneE3"/>
    </vehicle>
    <vehicle id="2" depart="4.00">
        <route edges="-gneE4 gneE6"/>
    </vehicle>
    <vehicle id="4" depart="8.00">
        <route edges="gneE3 gneE4"/>
    </vehicle>
    <vehicle id="5" depart="10.00">
        <route edges="gneE3 gneE4"/>
    </vehicle>
    <vehicle id="6" depart="12.00">
        <route edges="-gneE6 -gneE3"/>
    </vehicle>
    <vehicle id="7" depart="14.00">
        <route edges="-gneE6 -gneE3"/>
    </vehicle>
    <vehicle id="9" depart="18.00">
        <route edges="-gneE4 gneE6"/>
    </vehicle>
    <vehicle id="11" depart="22.00">
        <route edges="-gneE4 -gneE3"/>
    </vehicle>
    <vehicle id="12" depart="24.00">
        <route edges="-gneE4 -gneE3"/>
    </vehicle>
    <vehicle id="14" depart="28.00">
        <route edges="gneE3 gneE4"/>
    </vehicle>
    <vehicle id="16" depart="32.00">
        <route edges="-gneE6 -gneE2"/>
    </vehicle>
    <vehicle id="17" depart="34.00">
        <route edges="gneE3 gneE4"/>
    </vehicle>
    <vehicle id="19" depart="38.00">
        <route edges="gneE2 -gneE3"/>
    </vehicle>
    <vehicle id="20" depart="40.00">
        <route edges="gneE3 -gneE2"/>
    </vehicle>
    <vehicle id="21" depart="42.00">
        <route edges="-gneE6 -gneE2"/>
    </vehicle>
    <vehicle id="22" depart="44.00">
        <route edges="gneE2 gneE6"/>
    </vehicle>
    <vehicle id="23" depart="46.00">
        <route edges="-gneE6 -gneE3"/>
    </vehicle>
    <vehicle id="26" depart="52.00">
        <route edges="-gneE4 -gneE2"/>
    </vehicle>
    <vehicle id="27" depart="54.00">
        <route edges="-gneE6 -gneE3"/>
    </vehicle>
    <vehicle id="28" depart="56.00">
        <route edges="gneE2 gneE4"/>
    </vehicle>
    <vehicle id="29" depart="58.00">
        <route edges="gneE2 gneE6"/>
    </vehicle>
    <vehicle id="31" depart="62.00">
        <route edges="gneE2 -gneE3"/>
    </vehicle>
    <vehicle id="33" depart="66.00">
        <route edges="gneE2 gneE6"/>
    </vehicle>
    <vehicle id="35" depart="70.00">
        <route edges="gneE3 gneE6"/>
    </vehicle>
    <vehicle id="36" depart="72.00">
        <route edges="gneE3 gneE6"/>
    </vehicle>
    <vehicle id="38" depart="76.00">
        <route edges="gneE3 gneE4"/>
    </vehicle>
    <vehicle id="39" depart="78.00">
        <route edges="gneE3 gneE4"/>
    </vehicle>
    <vehicle id="40" depart="80.00">
        <route edges="-gneE6 -gneE3"/>
    </vehicle>
    <vehicle id="41" depart="82.00">
        <route edges="gneE2 gneE4"/>
    </vehicle>
    <vehicle id="44" depart="88.00">
        <route edges="gneE2 gneE4"/>
    </vehicle>
    <vehicle id="45" depart="90.00">
        <route edges="-gneE6 -gneE3"/>
    </vehicle>
    <vehicle id="46" depart="92.00">
        <route edges="gneE3 gneE4"/>
    </vehicle>
    <vehicle id="47" depart="94.00">
        <route edges="gneE2 gneE6"/>
    </vehicle>
    <vehicle id="48" depart="96.00">
        <route edges="-gneE4 gneE6"/>
    </vehicle>
    <vehicle id="49" depart="98.00">
        <route edges="gneE2 gneE6"/>
    </vehicle>
    <vehicle id="50" depart="100.00">
        <route edges="-gneE6 -gneE3"/>
    </vehicle>
    <vehicle id="51" depart="102.00">
        <route edges="-gneE4 gneE6"/>
    </vehicle>
    <vehicle id="52" depart="104.00">
        <route edges="gneE2 gneE4"/>
    </vehicle>
    <vehicle id="53" depart="106.00">
        <route edges="-gneE6 -gneE3"/>
    </vehicle>
    <vehicle id="55" depart="110.00">
        <route edges="-gneE4 -gneE3"/>
    </vehicle>
    <vehicle id="57" depart="114.00">
        <route edges="gneE3 gneE4"/>
    </vehicle>
    <vehicle id="58" depart="116.00">
        <route edges="gneE2 gneE4"/>
    </vehicle>
    <vehicle id="59" depart="118.00">
        <route edges="gneE2 -gneE3"/>
    </vehicle>
    <vehicle id="60" depart="120.00">
        <route edges="-gneE4 -gneE3"/>
    </vehicle>
    <vehicle id="61" depart="122.00">
        <route edges="gneE2 gneE4"/>
    </vehicle>
    <vehicle id="63" depart="126.00">
        <route edges="gneE3 gneE6"/>
    </vehicle>
    <vehicle id="64" depart="128.00">
        <route edges="gneE3 gneE6"/>
    </vehicle>
    <vehicle id="67" depart="134.00">
        <route edges="-gneE6 gneE4"/>
    </vehicle>
    <vehicle id="68" depart="136.00">
        <route edges="-gneE6 gneE4"/>
    </vehicle>
    <vehicle id="71" depart="142.00">
        <route edges="gneE3 -gneE2"/>
    </vehicle>
    <vehicle id="72" depart="144.00">
        <route edges="gneE3 -gneE2"/>
    </vehicle>
    <vehicle id="73" depart="146.00">
        <route edges="gneE2 -gneE3"/>
    </vehicle>
    <vehicle id="75" depart="150.00">
        <route edges="gneE2 gneE4"/>
    </vehicle>
    <vehicle id="76" depart="152.00">
        <route edges="gneE2 -gneE3"/>
    </vehicle>
    <vehicle id="77" depart="154.00">
        <route edges="-gneE4 gneE6"/>
    </vehicle>
    <vehicle id="78" depart="156.00">
        <route edges="-gneE6 -gneE2"/>
    </vehicle>
    <vehicle id="79" depart="158.00">
        <route edges="gneE3 gneE6"/>
    </vehicle>
    <vehicle id="80" depart="160.00">
        <route edges="gneE2 gneE6"/>
    </vehicle>
    <vehicle id="81" depart="162.00">
        <route edges="gneE2 gneE6"/>
    </vehicle>
    <vehicle id="82" depart="164.00">
        <route edges="gneE2 gneE4"/>
    </vehicle>
    <vehicle id="83" depart="166.00">
        <route edges="gneE2 gneE4"/>
    </vehicle>
    <vehicle id="85" depart="170.00">
        <route edges="-gneE6 -gneE3"/>
    </vehicle>
    <vehicle id="86" depart="172.00">
        <route edges="-gneE6 -gneE2"/>
    </vehicle>
    <vehicle id="87" depart="174.00">
        <route edges="gneE2 gneE4"/>
    </vehicle>
    <vehicle id="89" depart="178.00">
        <route edges="gneE2 -gneE3"/>
    </vehicle>
    <vehicle id="90" depart="180.00">
        <route edges="-gneE4 -gneE2"/>
    </vehicle>
    <vehicle id="91" depart="182.00">
        <route edges="-gneE4 -gneE3"/>
    </vehicle>
    <vehicle id="93" depart="186.00">
        <route edges="gneE2 gneE4"/>
    </vehicle>
    <vehicle id="94" depart="188.00">
        <route edges="-gneE4 gneE6"/>
    </vehicle>
    <vehicle id="95" depart="190.00">
        <route edges="gneE3 -gneE2"/>
    </vehicle>
    <vehicle id="97" depart="194.00">
        <route edges="gneE2 gneE6"/>
    </vehicle>
    <vehicle id="98" depart="196.00">
        <route edges="-gneE4 -gneE3"/>
    </vehicle>
    <vehicle id="99" depart="198.00">
        <route edges="-gneE6 gneE4"/>
    </vehicle>
    <vehicle id="100" depart="200.00">
        <route edges="-gneE4 -gneE3"/>
    </vehicle>
    <vehicle id="101" depart="202.00">
        <route edges="gneE3 -gneE2"/>
    </vehicle>
    <vehicle id="102" depart="204.00">
        <route edges="gneE2 gneE6"/>
    </vehicle>
    <vehicle id="103" depart="206.00">
        <route edges="-gneE6 gneE4"/>
    </vehicle>
    <vehicle id="104" depart="208.00">
        <route edges="gneE3 -gneE2"/>
    </vehicle>
    <vehicle id="105" depart="210.00">
        <route edges="-gneE6 gneE4"/>
    </vehicle>
    <vehicle id="106" depart="212.00">
        <route edges="gneE3 -gneE2"/>
    </vehicle>
    <vehicle id="107" depart="214.00">
        <route edges="-gneE6 -gneE3"/>
    </vehicle>
    <vehicle id="110" depart="220.00">
        <route edges="gneE2 -gneE3"/>
    </vehicle>
    <vehicle id="111" depart="222.00">
        <route edges="gneE3 -gneE2"/>
    </vehicle>
    <vehicle id="112" depart="224.00">
        <route edges="gneE2 -gneE3"/>
    </vehicle>
    <vehicle id="113" depart="226.00">
        <route edges="-gneE6 gneE4"/>
    </vehicle>
    <vehicle id="114" depart="228.00">
        <route edges="gneE3 gneE4"/>
    </vehicle>
    <vehicle id="115" depart="230.00">
        <route edges="gneE2 -gneE3"/>
    </vehicle>
    <vehicle id="116" depart="232.00">
        <route edges="gneE2 gneE4"/>
    </vehicle>
    <vehicle id="117" depart="234.00">
        <route edges="gneE2 gneE6"/>
    </vehicle>
    <vehicle id="118" depart="236.00">
        <route edges="gneE3 gneE4"/>
    </vehicle>
    <vehicle id="119" depart="238.00">
        <route edges="-gneE4 gneE6"/>
    </vehicle>
    <vehicle id="120" depart="240.00">
        <route edges="gneE3 gneE6"/>
    </vehicle>
    <vehicle id="122" depart="244.00">
        <route edges="gneE2 gneE6"/>
    </vehicle>
    <vehicle id="123" depart="246.00">
        <route edges="gneE2 gneE6"/>
    </vehicle>
    <vehicle id="125" depart="250.00">
        <route edges="-gneE4 -gneE3"/>
    </vehicle>
    <vehicle id="127" depart="254.00">
        <route edges="-gneE4 -gneE3"/>
    </vehicle>
    <vehicle id="130" depart="260.00">
        <route edges="-gneE4 -gneE3"/>
    </vehicle>
    <vehicle id="131" depart="262.00">
        <route edges="-gneE6 gneE4"/>
    </vehicle>
    <vehicle id="132" depart="264.00">
        <route edges="-gneE6 gneE4"/>
    </vehicle>
    <vehicle id="133" depart="266.00">
        <route edges="-gneE6 gneE4"/>
    </vehicle>
    <vehicle id="134" depart="268.00">
        <route edges="-gneE6 -gneE2"/>
    </vehicle>
    <vehicle id="135" depart="270.00">
        <route edges="gneE3 gneE6"/>
    </vehicle>
    <vehicle id="140" depart="280.00">
        <route edges="gneE3 gneE4"/>
    </vehicle>
    <vehicle id="143" depart="286.00">
        <route edges="-gneE6 gneE4"/>
    </vehicle>
    <vehicle id="144" depart="288.00">
        <route edges="gneE2 gneE4"/>
    </vehicle>
    <vehicle id="145" depart="290.00">
        <route edges="gneE3 -gneE2"/>
    </vehicle>
    <vehicle id="147" depart="294.00">
        <route edges="gneE2 -gneE3"/>
    </vehicle>
    <vehicle id="148" depart="296.00">
        <route edges="gneE2 gneE6"/>
    </vehicle>
    <vehicle id="149" depart="298.00">
        <route edges="gneE3 gneE4"/>
    </vehicle>
    <vehicle id="150" depart="300.00">
        <route edges="gneE2 -gneE3"/>
    </vehicle>
    <vehicle id="151" depart="302.00">
        <route edges="gneE2 gneE4"/>
    </vehicle>
    <vehicle id="152" depart="304.00">
        <route edges="-gneE6 -gneE2"/>
    </vehicle>
    <vehicle id="153" depart="306.00">
        <route edges="-gneE4 -gneE3"/>
    </vehicle>
    <vehicle id="154" depart="308.00">
        <route edges="gneE2 gneE4"/>
    </vehicle>
    <vehicle id="155" depart="310.00">
        <route edges="-gneE4 gneE6"/>
    </vehicle>
    <vehicle id="157" depart="314.00">
        <route edges="gneE3 -gneE2"/>
    </vehicle>
    <vehicle id="159" depart="318.00">
        <route edges="gneE3 gneE6"/>
    </vehicle>
    <vehicle id="160" depart="320.00">
        <route edges="-gneE6 gneE4"/>
    </vehicle>
    <vehicle id="161" depart="322.00">
        <route edges="gneE3 -gneE2"/>
    </vehicle>
    <vehicle id="165" depart="330.00">
        <route edges="gneE2 -gneE3"/>
    </vehicle>
    <vehicle id="166" depart="332.00">
        <route edges="gneE2 gneE4"/>
    </vehicle>
    <vehicle id="168" depart="336.00">
        <route edges="gneE2 gneE4"/>
    </vehicle>
    <vehicle id="169" depart="338.00">
        <route edges="-gneE4 -gneE3"/>
    </vehicle>
    <vehicle id="170" depart="340.00">
        <route edges="gneE2 -gneE3"/>
    </vehicle>
    <vehicle id="172" depart="344.00">
        <route edges="-gneE6 -gneE3"/>
    </vehicle>
    <vehicle id="173" depart="346.00">
        <route edges="-gneE6 -gneE2"/>
    </vehicle>
    <vehicle id="175" depart="350.00">
        <route edges="gneE3 gneE4"/>
    </vehicle>
    <vehicle id="176" depart="352.00">
        <route edges="gneE3 gneE4"/>
    </vehicle>
    <vehicle id="177" depart="354.00">
        <route edges="-gneE6 -gneE2"/>
    </vehicle>
    <vehicle id="178" depart="356.00">
        <route edges="-gneE6 -gneE3"/>
    </vehicle>
    <vehicle id="179" depart="358.00">
        <route edges="-gneE4 gneE6"/>
    </vehicle>
    <vehicle id="180" depart="360.00">
        <route edges="gneE3 gneE6"/>
    </vehicle>
    <vehicle id="181" depart="362.00">
        <route edges="gneE3 gneE4"/>
    </vehicle>
    <vehicle id="182" depart="364.00">
        <route edges="-gneE4 gneE6"/>
    </vehicle>
    <vehicle id="185" depart="370.00">
        <route edges="-gneE4 gneE6"/>
    </vehicle>
    <vehicle id="187" depart="374.00">
        <route edges="gneE3 gneE6"/>
    </vehicle>
    <vehicle id="189" depart="378.00">
        <route edges="gneE2 gneE4"/>
    </vehicle>
    <vehicle id="190" depart="380.00">
        <route edges="-gneE4 gneE6"/>
    </vehicle>
    <vehicle id="192" depart="384.00">
        <route edges="gneE3 gneE6"/>
    </vehicle>
    <vehicle id="195" depart="390.00">
        <route edges="gneE3 gneE4"/>
    </vehicle>
    <vehicle id="197" depart="394.00">
        <route edges="gneE3 gneE4"/>
    </vehicle>
    <vehicle id="198" depart="396.00">
        <route edges="-gneE4 -gneE3"/>
    </vehicle>
    <vehicle id="199" depart="398.00">
        <route edges="-gneE6 -gneE3"/>
    </vehicle>
    <vehicle id="200" depart="400.00">
        <route edges="-gneE6 -gneE2"/>
    </vehicle>
    <vehicle id="201" depart="402.00">
        <route edges="-gneE6 gneE4"/>
    </vehicle>
    <vehicle id="202" depart="404.00">
        <route edges="-gneE6 -gneE3"/>
    </vehicle>
    <vehicle id="203" depart="406.00">
        <route edges="gneE3 gneE6"/>
    </vehicle>
    <vehicle id="204" depart="408.00">
        <route edges="-gneE6 gneE4"/>
    </vehicle>
    <vehicle id="205" depart="410.00">
        <route edges="-gneE4 gneE6"/>
    </vehicle>
    <vehicle id="206" depart="412.00">
        <route edges="-gneE4 gneE6"/>
    </vehicle>
    <vehicle id="207" depart="414.00">
        <route edges="-gneE6 gneE4"/>
    </vehicle>
    <vehicle id="208" depart="416.00">
        <route edges="-gneE6 -gneE3"/>
    </vehicle>
    <vehicle id="209" depart="418.00">
        <route edges="gneE2 gneE6"/>
    </vehicle>
    <vehicle id="210" depart="420.00">
        <route edges="gneE3 gneE4"/>
    </vehicle>
    <vehicle id="211" depart="422.00">
        <route edges="-gneE4 gneE6"/>
    </vehicle>
    <vehicle id="212" depart="424.00">
        <route edges="-gneE6 gneE4"/>
    </vehicle>
    <vehicle id="213" depart="426.00">
        <route edges="gneE2 gneE4"/>
    </vehicle>
    <vehicle id="216" depart="432.00">
        <route edges="gneE2 gneE4"/>
    </vehicle>
    <vehicle id="218" depart="436.00">
        <route edges="-gneE6 -gneE2"/>
    </vehicle>
    <vehicle id="219" depart="438.00">
        <route edges="gneE2 gneE6"/>
    </vehicle>
    <vehicle id="220" depart="440.00">
        <route edges="gneE3 gneE4"/>
    </vehicle>
    <vehicle id="221" depart="442.00">
        <route edges="-gneE6 -gneE2"/>
    </vehicle>
    <vehicle id="222" depart="444.00">
        <route edges="-gneE4 -gneE2"/>
    </vehicle>
    <vehicle id="223" depart="446.00">
        <route edges="gneE2 gneE6"/>
    </vehicle>
    <vehicle id="224" depart="448.00">
        <route edges="-gneE4 -gneE3"/>
    </vehicle>
    <vehicle id="225" depart="450.00">
        <route edges="-gneE6 -gneE2"/>
    </vehicle>
    <vehicle id="226" depart="452.00">
        <route edges="-gneE6 -gneE3"/>
    </vehicle>
    <vehicle id="227" depart="454.00">
        <route edges="-gneE4 -gneE2"/>
    </vehicle>
    <vehicle id="228" depart="456.00">
        <route edges="gneE3 gneE4"/>
    </vehicle>
    <vehicle id="229" depart="458.00">
        <route edges="-gneE4 -gneE3"/>
    </vehicle>
    <vehicle id="230" depart="460.00">
        <route edges="-gneE4 -gneE2"/>
    </vehicle>
    <vehicle id="232" depart="464.00">
        <route edges="gneE2 gneE6"/>
    </vehicle>
    <vehicle id="233" depart="466.00">
        <route edges="-gneE4 -gneE3"/>
    </vehicle>
    <vehicle id="235" depart="470.00">
        <route edges="gneE2 gneE4"/>
    </vehicle>
    <vehicle id="236" depart="472.00">
        <route edges="gneE3 gneE6"/>
    </vehicle>
    <vehicle id="237" depart="474.00">
        <route edges="gneE3 gneE6"/>
    </vehicle>
    <vehicle id="238" depart="476.00">
        <route edges="-gneE6 -gneE2"/>
    </vehicle>
    <vehicle id="239" depart="478.00">
        <route edges="-gneE6 -gneE3"/>
    </vehicle>
    <vehicle id="240" depart="480.00">
        <route edges="gneE3 gneE4"/>
    </vehicle>
    <vehicle id="241" depart="482.00">
        <route edges="-gneE4 gneE6"/>
    </vehicle>
    <vehicle id="243" depart="486.00">
        <route edges="-gneE6 gneE4"/>
    </vehicle>
    <vehicle id="244" depart="488.00">
        <route edges="-gneE4 gneE6"/>
    </vehicle>
    <vehicle id="245" depart="490.00">
        <route edges="gneE3 gneE4"/>
    </vehicle>
    <vehicle id="246" depart="492.00">
        <route edges="-gneE6 -gneE2"/>
    </vehicle>
    <vehicle id="247" depart="494.00">
        <route edges="gneE2 -gneE3"/>
    </vehicle>
    <vehicle id="250" depart="500.00">
        <route edges="-gneE4 gneE6"/>
    </vehicle>
    <vehicle id="251" depart="502.00">
        <route edges="gneE2 gneE4"/>
    </vehicle>
    <vehicle id="252" depart="504.00">
        <route edges="gneE3 -gneE2"/>
    </vehicle>
    <vehicle id="254" depart="508.00">
        <route edges="gneE2 -gneE3"/>
    </vehicle>
    <vehicle id="256" depart="512.00">
        <route edges="gneE3 gneE6"/>
    </vehicle>
    <vehicle id="257" depart="514.00">
        <route edges="-gneE4 gneE6"/>
    </vehicle>
    <vehicle id="258" depart="516.00">
        <route edges="gneE3 gneE6"/>
    </vehicle>
    <vehicle id="259" depart="518.00">
        <route edges="-gneE6 -gneE3"/>
    </vehicle>
    <vehicle id="260" depart="520.00">
        <route edges="gneE3 gneE4"/>
    </vehicle>
    <vehicle id="261" depart="522.00">
        <route edges="gneE2 gneE4"/>
    </vehicle>
    <vehicle id="262" depart="524.00">
        <route edges="gneE2 gneE4"/>
    </vehicle>
    <vehicle id="263" depart="526.00">
        <route edges="-gneE6 gneE4"/>
    </vehicle>
    <vehicle id="264" depart="528.00">
        <route edges="-gneE4 -gneE2"/>
    </vehicle>
    <vehicle id="265" depart="530.00">
        <route edges="gneE3 gneE6"/>
    </vehicle>
    <vehicle id="266" depart="532.00">
        <route edges="-gneE4 -gneE2"/>
    </vehicle>
    <vehicle id="267" depart="534.00">
        <route edges="gneE3 gneE6"/>
    </vehicle>
    <vehicle id="268" depart="536.00">
        <route edges="gneE3 gneE6"/>
    </vehicle>
    <vehicle id="270" depart="540.00">
        <route edges="gneE2 gneE4"/>
    </vehicle>
    <vehicle id="271" depart="542.00">
        <route edges="-gneE6 gneE4"/>
    </vehicle>
    <vehicle id="273" depart="546.00">
        <route edges="gneE3 gneE6"/>
    </vehicle>
    <vehicle id="275" depart="550.00">
        <route edges="gneE2 -gneE3"/>
    </vehicle>
    <vehicle id="280" depart="560.00">
        <route edges="gneE2 gneE4"/>
    </vehicle>
    <vehicle id="281" depart="562.00">
        <route edges="-gneE4 -gneE2"/>
    </vehicle>
    <vehicle id="282" depart="564.00">
        <route edges="-gneE4 gneE6"/>
    </vehicle>
    <vehicle id="283" depart="566.00">
        <route edges="gneE3 gneE6"/>
    </vehicle>
    <vehicle id="284" depart="568.00">
        <route edges="gneE3 gneE6"/>
    </vehicle>
    <vehicle id="285" depart="570.00">
        <route edges="gneE2 -gneE3"/>
    </vehicle>
    <vehicle id="286" depart="572.00">
        <route edges="-gneE6 -gneE2"/>
    </vehicle>
    <vehicle id="287" depart="574.00">
        <route edges="gneE3 -gneE2"/>
    </vehicle>
    <vehicle id="288" depart="576.00">
        <route edges="-gneE4 -gneE3"/>
    </vehicle>
    <vehicle id="289" depart="578.00">
        <route edges="-gneE6 -gneE2"/>
    </vehicle>
    <vehicle id="290" depart="580.00">
        <route edges="-gneE4 gneE6"/>
    </vehicle>
    <vehicle id="291" depart="582.00">
        <route edges="-gneE6 -gneE2"/>
    </vehicle>
    <vehicle id="292" depart="584.00">
        <route edges="-gneE6 gneE4"/>
    </vehicle>
    <vehicle id="293" depart="586.00">
        <route edges="-gneE4 -gneE3"/>
    </vehicle>
    <vehicle id="294" depart="588.00">
        <route edges="gneE3 gneE4"/>
    </vehicle>
    <vehicle id="295" depart="590.00">
        <route edges="-gneE4 gneE6"/>
    </vehicle>
    <vehicle id="296" depart="592.00">
        <route edges="-gneE4 -gneE2"/>
    </vehicle>
    <vehicle id="299" depart="598.00">
        <route edges="-gneE6 -gneE2"/>
    </vehicle>
    <vehicle id="300" depart="600.00">
        <route edges="-gneE4 -gneE3"/>
    </vehicle>
    <vehicle id="301" depart="602.00">
        <route edges="gneE2 gneE4"/>
    </vehicle>
    <vehicle id="302" depart="604.00">
        <route edges="-gneE6 gneE4"/>
    </vehicle>
    <vehicle id="303" depart="606.00">
        <route edges="-gneE4 -gneE3"/>
    </vehicle>
    <vehicle id="305" depart="610.00">
        <route edges="-gneE4 -gneE3"/>
    </vehicle>
    <vehicle id="307" depart="614.00">
        <route edges="-gneE4 -gneE2"/>
    </vehicle>
    <vehicle id="308" depart="616.00">
        <route edges="gneE3 gneE4"/>
    </vehicle>
    <vehicle id="310" depart="620.00">
        <route edges="-gneE6 -gneE3"/>
    </vehicle>
    <vehicle id="314" depart="628.00">
        <route edges="gneE2 gneE6"/>
    </vehicle>
    <vehicle id="315" depart="630.00">
        <route edges="gneE2 gneE6"/>
    </vehicle>
    <vehicle id="316" depart="632.00">
        <route edges="-gneE6 -gneE2"/>
    </vehicle>
    <vehicle id="317" depart="634.00">
        <route edges="-gneE4 -gneE2"/>
    </vehicle>
    <vehicle id="319" depart="638.00">
        <route edges="gneE2 gneE6"/>
    </vehicle>
    <vehicle id="321" depart="642.00">
        <route edges="gneE2 gneE6"/>
    </vehicle>
    <vehicle id="322" depart="644.00">
        <route edges="gneE2 gneE4"/>
    </vehicle>
    <vehicle id="323" depart="646.00">
        <route edges="-gneE6 gneE4"/>
    </vehicle>
    <vehicle id="324" depart="648.00">
        <route edges="gneE3 gneE6"/>
    </vehicle>
    <vehicle id="325" depart="650.00">
        <route edges="-gneE6 gneE4"/>
    </vehicle>
    <vehicle id="326" depart="652.00">
        <route edges="-gneE6 gneE4"/>
    </vehicle>
    <vehicle id="327" depart="654.00">
        <route edges="-gneE4 -gneE3"/>
    </vehicle>
    <vehicle id="331" depart="662.00">
        <route edges="-gneE6 -gneE2"/>
    </vehicle>
    <vehicle id="332" depart="664.00">
        <route edges="-gneE4 -gneE3"/>
    </vehicle>
    <vehicle id="333" depart="666.00">
        <route edges="gneE2 gneE6"/>
    </vehicle>
    <vehicle id="334" depart="668.00">
        <route edges="gneE3 gneE4"/>
    </vehicle>
    <vehicle id="336" depart="672.00">
        <route edges="gneE2 gneE6"/>
    </vehicle>
    <vehicle id="337" depart="674.00">
        <route edges="-gneE6 gneE4"/>
    </vehicle>
    <vehicle id="338" depart="676.00">
        <route edges="gneE2 gneE6"/>
    </vehicle>
    <vehicle id="339" depart="678.00">
        <route edges="-gneE6 gneE4"/>
    </vehicle>
    <vehicle id="341" depart="682.00">
        <route edges="gneE2 gneE4"/>
    </vehicle>
    <vehicle id="342" depart="684.00">
        <route edges="-gneE4 -gneE2"/>
    </vehicle>
    <vehicle id="346" depart="692.00">
        <route edges="-gneE4 -gneE2"/>
    </vehicle>
    <vehicle id="347" depart="694.00">
        <route edges="-gneE4 -gneE3"/>
    </vehicle>
    <vehicle id="348" depart="696.00">
        <route edges="gneE2 gneE6"/>
    </vehicle>
    <vehicle id="349" depart="698.00">
        <route edges="gneE3 gneE4"/>
    </vehicle>
    <vehicle id="350" depart="700.00">
        <route edges="gneE2 gneE6"/>
    </vehicle>
    <vehicle id="351" depart="702.00">
        <route edges="-gneE6 -gneE2"/>
    </vehicle>
    <vehicle id="353" depart="706.00">
        <route edges="gneE3 gneE6"/>
    </vehicle>
    <vehicle id="354" depart="708.00">
        <route edges="-gneE4 gneE6"/>
    </vehicle>
    <vehicle id="355" depart="710.00">
        <route edges="-gneE4 -gneE3"/>
    </vehicle>
    <vehicle id="357" depart="714.00">
        <route edges="gneE2 -gneE3"/>
    </vehicle>
    <vehicle id="358" depart="716.00">
        <route edges="gneE2 gneE6"/>
    </vehicle>
    <vehicle id="360" depart="720.00">
        <route edges="gneE2 -gneE3"/>
    </vehicle>
    <vehicle id="361" depart="722.00">
        <route edges="gneE3 gneE4"/>
    </vehicle>
    <vehicle id="363" depart="726.00">
        <route edges="-gneE4 -gneE2"/>
    </vehicle>
    <vehicle id="364" depart="728.00">
        <route edges="-gneE6 -gneE3"/>
    </vehicle>
    <vehicle id="366" depart="732.00">
        <route edges="-gneE4 gneE6"/>
    </vehicle>
    <vehicle id="367" depart="734.00">
        <route edges="gneE3 -gneE2"/>
    </vehicle>
    <vehicle id="368" depart="736.00">
        <route edges="gneE3 -gneE2"/>
    </vehicle>
    <vehicle id="370" depart="740.00">
        <route edges="gneE3 gneE4"/>
    </vehicle>
    <vehicle id="371" depart="742.00">
        <route edges="-gneE4 -gneE3"/>
    </vehicle>
    <vehicle id="373" depart="746.00">
        <route edges="gneE3 -gneE2"/>
    </vehicle>
    <vehicle id="375" depart="750.00">
        <route edges="gneE3 -gneE2"/>
    </vehicle>
    <vehicle id="377" depart="754.00">
        <route edges="-gneE4 gneE6"/>
    </vehicle>
    <vehicle id="378" depart="756.00">
        <route edges="gneE3 gneE6"/>
    </vehicle>
    <vehicle id="379" depart="758.00">
        <route edges="-gneE4 gneE6"/>
    </vehicle>
    <vehicle id="380" depart="760.00">
        <route edges="-gneE4 -gneE3"/>
    </vehicle>
    <vehicle id="381" depart="762.00">
        <route edges="gneE2 -gneE3"/>
    </vehicle>
    <vehicle id="382" depart="764.00">
        <route edges="gneE3 gneE4"/>
    </vehicle>
    <vehicle id="383" depart="766.00">
        <route edges="-gneE6 -gneE3"/>
    </vehicle>
    <vehicle id="384" depart="768.00">
        <route edges="gneE2 gneE4"/>
    </vehicle>
    <vehicle id="385" depart="770.00">
        <route edges="-gneE6 gneE4"/>
    </vehicle>
    <vehicle id="386" depart="772.00">
        <route edges="gneE2 gneE6"/>
    </vehicle>
    <vehicle id="391" depart="782.00">
        <route edges="gneE3 gneE4"/>
    </vehicle>
    <vehicle id="392" depart="784.00">
        <route edges="-gneE6 gneE4"/>
    </vehicle>
    <vehicle id="393" depart="786.00">
        <route edges="gneE3 gneE6"/>
    </vehicle>
    <vehicle id="395" depart="790.00">
        <route edges="gneE2 -gneE3"/>
    </vehicle>
    <vehicle id="396" depart="792.00">
        <route edges="gneE2 gneE6"/>
    </vehicle>
    <vehicle id="397" depart="794.00">
        <route edges="-gneE6 -gneE3"/>
    </vehicle>
    <vehicle id="398" depart="796.00">
        <route edges="gneE2 gneE4"/>
    </vehicle>
    <vehicle id="399" depart="798.00">
        <route edges="gneE3 gneE6"/>
    </vehicle>
    <vehicle id="400" depart="800.00">
        <route edges="gneE3 -gneE2"/>
    </vehicle>
    <vehicle id="402" depart="804.00">
        <route edges="gneE3 -gneE2"/>
    </vehicle>
    <vehicle id="403" depart="806.00">
        <route edges="-gneE4 -gneE2"/>
    </vehicle>
    <vehicle id="405" depart="810.00">
        <route edges="gneE2 gneE6"/>
    </vehicle>
    <vehicle id="406" depart="812.00">
        <route edges="-gneE6 -gneE3"/>
    </vehicle>
    <vehicle id="407" depart="814.00">
        <route edges="-gneE6 -gneE2"/>
    </vehicle>
    <vehicle id="409" depart="818.00">
        <route edges="gneE2 -gneE3"/>
    </vehicle>
    <vehicle id="410" depart="820.00">
        <route edges="-gneE6 -gneE3"/>
    </vehicle>
    <vehicle id="411" depart="822.00">
        <route edges="-gneE4 gneE6"/>
    </vehicle>
    <vehicle id="412" depart="824.00">
        <route edges="gneE3 gneE6"/>
    </vehicle>
    <vehicle id="413" depart="826.00">
        <route edges="-gneE6 gneE4"/>
    </vehicle>
    <vehicle id="414" depart="828.00">
        <route edges="-gneE4 -gneE2"/>
    </vehicle>
    <vehicle id="415" depart="830.00">
        <route edges="gneE2 -gneE3"/>
    </vehicle>
    <vehicle id="416" depart="832.00">
        <route edges="-gneE6 gneE4"/>
    </vehicle>
    <vehicle id="417" depart="834.00">
        <route edges="-gneE4 -gneE2"/>
    </vehicle>
    <vehicle id="418" depart="836.00">
        <route edges="gneE3 gneE6"/>
    </vehicle>
    <vehicle id="419" depart="838.00">
        <route edges="-gneE4 gneE6"/>
    </vehicle>
    <vehicle id="420" depart="840.00">
        <route edges="gneE3 gneE4"/>
    </vehicle>
    <vehicle id="421" depart="842.00">
        <route edges="gneE2 -gneE3"/>
    </vehicle>
    <vehicle id="422" depart="844.00">
        <route edges="gneE3 gneE6"/>
    </vehicle>
    <vehicle id="423" depart="846.00">
        <route edges="-gneE6 -gneE3"/>
    </vehicle>
    <vehicle id="424" depart="848.00">
        <route edges="-gneE6 -gneE2"/>
    </vehicle>
    <vehicle id="425" depart="850.00">