<?xml version="1.0" encoding="UTF-8"?>

<!-- generated on Sun May  6 21:31:31 2018 by SUMO duarouter Version 0.30.0
<?xml version="1.0" encoding="UTF-8"?>

<configuration xmlns:xsi="http://www.w3.org/2001/XMLSchema-instance" xsi:noNamespaceSchemaLocation="http://sumo.dlr.de/xsd/duarouterConfiguration.xsd">

    <input>
        <net-file value="cross/cross.net.xml"/>
        <route-files value="trips.trips.xml"/>
    </input>

    <output>
        <output-file value="cross/route/cross-2.4-3.rou.xml"/>
    </output>

    <processing>
        <ignore-errors value="true"/>
    </processing>

    <time>
        <begin value="0.0"/>
        <end value="1000.0"/>
    </time>

    <report>
        <no-warnings value="true"/>
        <no-step-log value="true"/>
    </report>

</configuration>
-->

<routes xmlns:xsi="http://www.w3.org/2001/XMLSchema-instance" xsi:noNamespaceSchemaLocation="http://sumo.dlr.de/xsd/routes_file.xsd">
    <vehicle id="1" depart="2.40">
        <route edges="gneE2 -gneE3"/>
    </vehicle>
    <vehicle id="2" depart="4.80">
        <route edges="-gneE4 -gneE2"/>
    </vehicle>
    <vehicle id="4" depart="9.60">
        <route edges="-gneE6 -gneE2"/>
    </vehicle>
    <vehicle id="5" depart="12.00">
        <route edges="gneE2 gneE4"/>
    </vehicle>
    <vehicle id="6" depart="14.40">
        <route edges="gneE3 gneE6"/>
    </vehicle>
    <vehicle id="7" depart="16.80">
        <route edges="-gneE6 gneE4"/>
    </vehicle>
    <vehicle id="8" depart="19.20">
        <route edges="-gneE6 -gneE3"/>
    </vehicle>
    <vehicle id="9" depart="21.60">
        <route edges="-gneE6 -gneE3"/>
    </vehicle>
    <vehicle id="10" depart="24.00">
        <route edges="-gneE4 gneE6"/>
    </vehicle>
    <vehicle id="12" depart="28.80">
        <route edges="gneE3 gneE4"/>
    </vehicle>
    <vehicle id="14" depart="33.60">
        <route edges="gneE2 gneE4"/>
    </vehicle>
    <vehicle id="15" depart="36.00">
        <route edges="-gneE6 gneE4"/>
    </vehicle>
    <vehicle id="16" depart="38.40">
        <route edges="-gneE6 -gneE3"/>
    </vehicle>
    <vehicle id="17" depart="40.80">
        <route edges="gneE3 -gneE2"/>
    </vehicle>
    <vehicle id="18" depart="43.20">
        <route edges="gneE3 gneE6"/>
    </vehicle>
    <vehicle id="19" depart="45.60">
        <route edges="-gneE6 gneE4"/>
    </vehicle>
    <vehicle id="20" depart="48.00">
        <route edges="-gneE4 gneE6"/>
    </vehicle>
    <vehicle id="21" depart="50.40">
        <route edges="-gneE6 gneE4"/>
    </vehicle>
    <vehicle id="23" depart="55.20">
        <route edges="-gneE6 gneE4"/>
    </vehicle>
    <vehicle id="24" depart="57.60">
        <route edges="-gneE4 -gneE2"/>
    </vehicle>
    <vehicle id="25" depart="60.00">
        <route edges="gneE2 -gneE3"/>
    </vehicle>
    <vehicle id="26" depart="62.40">
        <route edges="gneE3 gneE6"/>
    </vehicle>
    <vehicle id="29" depart="69.60">
        <route edges="gneE3 gneE4"/>
    </vehicle>
    <vehicle id="30" depart="72.00">
        <route edges="gneE3 gneE4"/>
    </vehicle>
    <vehicle id="31" depart="74.40">
        <route edges="gneE3 -gneE2"/>
    </vehicle>
    <vehicle id="34" depart="81.60">
        <route edges="gneE2 gneE4"/>
    </vehicle>
    <vehicle id="35" depart="84.00">
        <route edges="gneE2 gneE6"/>
    </vehicle>
    <vehicle id="37" depart="88.80">
        <route edges="gneE2 gneE6"/>
    </vehicle>
    <vehicle id="38" depart="91.20">
        <route edges="gneE2 gneE6"/>
    </vehicle>
    <vehicle id="41" depart="98.40">
        <route edges="-gneE4 -gneE3"/>
    </vehicle>
    <vehicle id="42" depart="100.80">
        <route edges="-gneE6 -gneE3"/>
    </vehicle>
    <vehicle id="43" depart="103.20">
        <route edges="gneE3 gneE4"/>
    </vehicle>
    <vehicle id="44" depart="105.60">
        <route edges="-gneE6 -gneE2"/>
    </vehicle>
    <vehicle id="45" depart="108.00">
        <route edges="gneE3 gneE4"/>
    </vehicle>
    <vehicle id="48" depart="115.20">
        <route edges="gneE2 gneE6"/>
    </vehicle>
    <vehicle id="51" depart="122.40">
        <route edges="-gneE4 -gneE2"/>
    </vehicle>
    <vehicle id="52" depart="124.80">
        <route edges="gneE3 gneE4"/>
    </vehicle>
    <vehicle id="53" depart="127.20">
        <route edges="gneE3 -gneE2"/>
    </vehicle>
    <vehicle id="54" depart="129.60">
        <route edges="gneE3 gneE4"/>
    </vehicle>
    <vehicle id="55" depart="132.00">
        <route edges="gneE2 -gneE3"/>
    </vehicle>
    <vehicle id="56" depart="134.40">
        <route edges="gneE2 -gneE3"/>
    </vehicle>
    <vehicle id="57" depart="136.80">
        <route edges="-gneE4 gneE6"/>
    </vehicle>
    <vehicle id="58" depart="139.20">
        <route edges="-gneE6 gneE4"/>
    </vehicle>
    <vehicle id="60" depart="144.00">
        <route edges="-gneE4 -gneE2"/>
    </vehicle>
    <vehicle id="63" depart="151.20">
        <route edges="-gneE4 gneE6"/>
    </vehicle>
    <vehicle id="64" depart="153.60">
        <route edges="-gneE6 gneE4"/>
    </vehicle>
    <vehicle id="65" depart="156.00">
        <route edges="-gneE6 -gneE2"/>
    </vehicle>
    <vehicle id="66" depart="158.40">
        <route edges="gneE3 -gneE2"/>
    </vehicle>
    <vehicle id="67" depart="160.80">
        <route edges="-gneE6 -gneE2"/>
    </vehicle>
    <vehicle id="68" depart="163.20">
        <route edges="gneE2 gneE6"/>
    </vehicle>
    <vehicle id="69" depart="165.60">
        <route edges="-gneE4 gneE6"/>
    </vehicle>
    <vehicle id="70" depart="168.00">
        <route edges="-gneE4 gneE6"/>
    </vehicle>
    <vehicle id="71" depart="170.40">
        <route edges="-gneE4 gneE6"/>
    </vehicle>
    <vehicle id="73" depart="175.20">
        <route edges="-gneE6 gneE4"/>
    </vehicle>
    <vehicle id="76" depart="182.40">
        <route edges="-gneE6 gneE4"/>
    </vehicle>
    <vehicle id="78" depart="187.20">
        <route edges="-gneE4 -gneE3"/>
    </vehicle>
    <vehicle id="79" depart="189.60">
        <route edges="-gneE6 -gneE3"/>
    </vehicle>
    <vehicle id="80" depart="192.00">
        <route edges="gneE2 gneE6"/>
    </vehicle>
    <vehicle id="81" depart="194.40">
        <route edges="gneE3 gneE4"/>
    </vehicle>
    <vehicle id="82" depart="196.80">
        <route edges="gneE3 gneE6"/>
    </vehicle>
    <vehicle id="85" depart="204.00">
        <route edges="gneE3 -gneE2"/>
    </vehicle>
    <vehicle id="86" depart="206.40">
        <route edges="gneE2 gneE4"/>
    </vehicle>
    <vehicle id="87" depart="208.80">
        <route edges="gneE2 -gneE3"/>
    </vehicle>
    <vehicle id="88" depart="211.20">
        <route edges="-gneE6 -gneE2"/>
    </vehicle>
    <vehicle id="90" depart="216.00">
        <route edges="-gneE6 -gneE3"/>
    </vehicle>
    <vehicle id="91" depart="218.40">
        <route edges="gneE2 gneE4"/>
    </vehicle>
    <vehicle id="93" depart="223.20">
        <route edges="gneE2 -gneE3"/>
    </vehicle>
    <vehicle id="94" depart="225.60">
        <route edges="gneE2 gneE4"/>
    </vehicle>
    <vehicle id="96" depart="230.40">
        <route edges="gneE3 gneE4"/>
    </vehicle>
    <vehicle id="97" depart="232.80">
        <route edges="gneE2 -gneE3"/>
    </vehicle>
    <vehicle id="99" depart="237.60">
        <route edges="-gneE6 -gneE3"/>
    </vehicle>
    <vehicle id="100" depart="240.00">
        <route edges="gneE3 -gneE2"/>
    </vehicle>
    <vehicle id="101" depart="242.40">
        <route edges="gneE2 gneE6"/>
    </vehicle>
    <vehicle id="103" depart="247.20">
        <route edges="gneE3 gneE4"/>
    </vehicle>
    <vehicle id="104" depart="249.60">
        <route edges="gneE2 -gneE3"/>
    </vehicle>
    <vehicle id="105" depart="252.00">
        <route edges="gneE2 -gneE3"/>
    </vehicle>
    <vehicle id="108" depart="259.20">
        <route edges="gneE3 -gneE2"/>
    </vehicle>
    <vehicle id="109" depart="261.60">
        <route edges="-gneE6 -gneE3"/>
    </vehicle>
    <vehicle id="110" depart="264.00">
        <route edges="-gneE4 -gneE3"/>
    </vehicle>
    <vehicle id="111" depart="266.40">
        <route edges="-gneE4 -gneE2"/>
    </vehicle>
    <vehicle id="112" depart="268.80">
        <route edges="-gneE6 gneE4"/>
    </vehicle>
    <vehicle id="113" depart="271.20">
        <route edges="-gneE4 -gneE2"/>
    </vehicle>
    <vehicle id="114" depart="273.60">
        <route edges="-gneE6 -gneE2"/>
    </vehicle>
    <vehicle id="115" depart="276.00">
        <route edges="gneE2 gneE6"/>
    </vehicle>
    <vehicle id="117" depart="280.80">
        <route edges="gneE3 -gneE2"/>
    </vehicle>
    <vehicle id="118" depart="283.20">
        <route edges="-gneE4 -gneE2"/>
    </vehicle>
    <vehicle id="119" depart="285.60">
        <route edges="-gneE6 -gneE2"/>
    </vehicle>
    <vehicle id="122" depart="292.80">
        <route edges="gneE3 -gneE2"/>
    </vehicle>
    <vehicle id="125" depart="300.00">
        <route edges="-gneE6 -gneE2"/>
    </vehicle>
    <vehicle id="126" depart="302.40">
        <route edges="-gneE4 -gneE3"/>
    </vehicle>
    <vehicle id="127" depart="304.80">
        <route edges="-gneE6 -gneE2"/>
    </vehicle>
    <vehicle id="128" depart="307.20">
        <route edges="-gneE4 gneE6"/>
    </vehicle>
    <vehicle id="130" depart="312.00">
        <route edges="-gneE6 gneE4"/>
    </vehicle>
    <vehicle id="131" depart="314.40">
        <route edges="gneE2 gneE6"/>
    </vehicle>
    <vehicle id="132" depart="316.80">
        <route edges="-gneE4 -gneE2"/>
    </vehicle>
    <vehicle id="133" depart="319.20">
        <route edges="gneE3 -gneE2"/>
    </vehicle>
    <vehicle id="134" depart="321.60">
        <route edges="gneE2 gneE4"/>
    </vehicle>
    <vehicle id="135" depart="324.00">
        <route edges="gneE2 gneE4"/>
    </vehicle>
    <vehicle id="136" depart="326.40">
        <route edges="gneE2 gneE6"/>
    </vehicle>
    <vehicle id="137" depart="328.80">
        <route edges="gneE3 gneE4"/>
    </vehicle>
    <vehicle id="139" depart="333.60">
        <route edges="-gneE4 gneE6"/>
    </vehicle>
    <vehicle id="140" depart="336.00">
        <route edges="-gneE4 -gneE3"/>
    </vehicle>
    <vehicle id="141" depart="338.40">
        <route edges="gneE2 gneE4"/>
    </vehicle>
    <vehicle id="142" depart="340.80">
        <route edges="gneE2 gneE6"/>
    </vehicle>
    <vehicle id="144" depart="345.60">
        <route edges="-gneE6 -gneE3"/>
    </vehicle>
    <vehicle id="145" depart="348.00">
        <route edges="gneE3 gneE6"/>
    </vehicle>
    <vehicle id="146" depart="350.40">
        <route edges="-gneE6 gneE4"/>
    </vehicle>
    <vehicle id="147" depart="352.80">
        <route edges="-gneE4 -gneE3"/>
    </vehicle>
    <vehicle id="148" depart="355.20">
        <route edges="gneE2 gneE6"/>
    </vehicle>
    <vehicle id="149" depart="357.60">
        <route edges="gneE2 gneE6"/>
    </vehicle>
    <vehicle id="151" depart="362.40">
        <route edges="gneE3 gneE6"/>
    </vehicle>
    <vehicle id="153" depart="367.20">
        <route edges="gneE3 gneE6"/>
    </vehicle>
    <vehicle id="154" depart="369.60">
        <route edges="gneE2 gneE4"/>
    </vehicle>
    <vehicle id="155" depart="372.00">
        <route edges="gneE3 -gneE2"/>
    </vehicle>
    <vehicle id="156" depart="374.40">
        <route edges="-gneE4 gneE6"/>
    </vehicle>
    <vehicle id="158" depart="379.20">
        <route edges="-gneE4 -gneE2"/>
    </vehicle>
    <vehicle id="159" depart="381.60">
        <route edges="-gneE6 gneE4"/>
    </vehicle>
    <vehicle id="161" depart="386.40">
        <route edges="-gneE4 -gneE3"/>
    </vehicle>
    <vehicle id="162" depart="388.80">
        <route edges="gneE3 -gneE2"/>
    </vehicle>
    <vehicle id="163" depart="391.20">
        <route edges="-gneE4 -gneE2"/>
    </vehicle>
    <vehicle id="164" depart="393.60">
        <route edges="-gneE6 gneE4"/>
    </vehicle>
    <vehicle id="165" depart="396.00">
        <route edges="-gneE6 -gneE2"/>
    </vehicle>
    <vehicle id="166" depart="398.40">
        <route edges="gneE2 gneE6"/>
    </vehicle>
    <vehicle id="168" depart="403.20">
        <route edges="-gneE4 -gneE2"/>
    </vehicle>
    <vehicle id="169" depart="405.60">
        <route edges="-gneE6 -gneE2"/>
    </vehicle>
    <vehicle id="170" depart="408.00">
        <route edges="gneE2 gneE4"/>
    </vehicle>
    <vehicle id="171" depart="410.40">
        <route edges="-gneE6 gneE4"/>
    </vehicle>
    <vehicle id="173" depart="415.20">
        <route edges="gneE3 gneE4"/>
    </vehicle>
    <vehicle id="174" depart="417.60">
        <route edges="gneE2 -gneE3"/>
    </vehicle>
    <vehicle id="175" depart="420.00">
        <route edges="-gneE6 -gneE2"/>
    </vehicle>
    <vehicle id="177" depart="424.80">
        <route edges="-gneE4 -gneE2"/>
    </vehicle>
    <vehicle id="178" depart="427.20">
        <route edges="-gneE6 gneE4"/>
    </vehicle>
    <vehicle id="179" depart="429.60">
        <route edges="gneE3 -gneE2"/>
    </vehicle>
    <vehicle id="180" depart="432.00">
        <route edges="gneE2 gneE6"/>
    </vehicle>
    <vehicle id="181" depart="434.40">
        <route edges="gneE2 gneE4"/>
    </vehicle>
    <vehicle id="183" depart="439.20">
        <route edges="gneE3 gneE4"/>
    </vehicle>
    <vehicle id="184" depart="441.60">
        <route edges="-gneE6 gneE4"/>
    </vehicle>
    <vehicle id="187" depart="448.80">
        <route edges="gneE2 -gneE3"/>
    </vehicle>
    <vehicle id="188" depart="451.20">
        <route edges="gneE2 gneE6"/>
    </vehicle>
    <vehicle id="189" depart="453.60">
        <route edges="gneE2 -gneE3"/>
    </vehicle>
    <vehicle id="190" depart="456.00">
        <route edges="-gneE4 -gneE3"/>
    </vehicle>
    <vehicle id="191" depart="458.40">
        <route edges="gneE2 -gneE3"/>
    </vehicle>
    <vehicle id="193" depart="463.20">
        <route edges="gneE2 -gneE3"/>
    </vehicle>
    <vehicle id="194" depart="465.60">
        <route edges="-gneE6 -gneE3"/>
    </vehicle>
    <vehicle id="195" depart="468.00">
        <route edges="-gneE6 gneE4"/>
    </vehicle>
    <vehicle id="197" depart="472.80">
        <route edges="-gneE6 -gneE2"/>
    </vehicle>
    <vehicle id="199" depart="477.60">
        <route edges="-gneE6 -gneE2"/>
    </vehicle>
    <vehicle id="201" depart="482.40">
        <route edges="gneE3 gneE4"/>
    </vehicle>
    <vehicle id="202" depart="484.80">
        <route edges="-gneE4 -gneE3"/>
    </vehicle>
    <vehicle id="203" depart="487.20">
        <route edges="gneE3 gneE6"/>
    </vehicle>
    <vehicle id="204" depart="489.60">
        <route edges="-gneE6 -gneE3"/>
    </vehicle>
    <vehicle id="205" depart="492.00">
        <route edges="gneE3 gneE6"/>
    </vehicle>
    <vehicle id="207" depart="496.80">
        <route edges="gneE2 gneE4"/>
    </vehicle>
    <vehicle id="208" depart="499.20">
        <route edges="-gneE4 gneE6"/>
    </vehicle>
    <vehicle id="209" depart="501.60">
        <route edges="gneE2 gneE6"/>
    </vehicle>
    <vehicle id="210" depart="504.00">
        <route edges="-gneE4 -gneE2"/>
    </vehicle>
    <vehicle id="211" depart="506.40">
        <route edges="gneE3 gneE4"/>
    </vehicle>
    <vehicle id="212" depart="508.80">
        <route edges="gneE3 -gneE2"/>
    </vehicle>
    <vehicle id="213" depart="511.20">
        <route edges="gneE2 -gneE3"/>
    </vehicle>
    <vehicle id="214" depart="513.60">
        <route edges="gneE2 -gneE3"/>
    </vehicle>
    <vehicle id="215" depart="516.00">
        <route edges="-gneE4 gneE6"/>
    </vehicle>
    <vehicle id="216" depart="518.40">
        <route edges="-gneE4 -gneE2"/>
    </vehicle>
    <vehicle id="219" depart="525.60">
        <route edges="gneE2 gneE6"/>
    </vehicle>
    <vehicle id="221" depart="530.40">
        <route edges="gneE2 -gneE3"/>
    </vehicle>
    <vehicle id="223" depart="535.20">
        <route edges="gneE2 -gneE3"/>
    </vehicle>
    <vehicle id="224" depart="537.60">
        <route edges="-gneE6 -gneE2"/>
    </vehicle>
    <vehicle id="225" depart="540.00">
        <route edges="-gneE4 -gneE3"/>
    </vehicle>
    <vehicle id="226" depart="542.40">
        <route edges="gneE3 -gneE2"/>
    </vehicle>
    <vehicle id="228" depart="547.20">
        <route edges="-gneE4 gneE6"/>
    </vehicle>
    <vehicle id="230" depart="552.00">
        <route edges="-gneE6 gneE4"/>
    </vehicle>
    <vehicle id="231" depart="554.40">
        <route edges="gneE3 gneE6"/>
    </vehicle>
    <vehicle id="232" depart="556.80">
        <route edges="-gneE4 gneE6"/>
    </vehicle>
    <vehicle id="234" depart="561.60">
        <route edges="gneE2 gneE4"/>
    </vehicle>
    <vehicle id="235" depart="564.00">
        <route edges="-gneE4 -gneE2"/>
    </vehicle>
    <vehicle id="236" depart="566.40">
        <route edges="gneE2 -gneE3"/>
    </vehicle>
    <vehicle id="237" depart="568.80">
        <route edges="gneE2 gneE4"/>
    </vehicle>
    <vehicle id="238" depart="571.20">
        <route edges="-gneE4 -gneE3"/>
    </vehicle>
    <vehicle id="239" depart="573.60">
        <route edges="-gneE6 -gneE2"/>
    </vehicle>
    <vehicle id="240" depart="576.00">
        <route edges="gneE3 gneE6"/>
    </vehicle>
    <vehicle id="241" depart="578.40">
        <route edges="gneE3 -gneE2"/>
    </vehicle>
    <vehicle id="242" depart="580.80">
        <route edges="-gneE6 gneE4"/>
    </vehicle>
    <vehicle id="243" depart="583.20">
        <route edges="gneE3 gneE6"/>
    </vehicle>
    <vehicle id="244" depart="585.60">
        <route edges="-gneE4 -gneE3"/>
    </vehicle>
    <vehicle id="245" depart="588.00">
        <route edges="-gneE6 gneE4"/>
    </vehicle>
    <vehicle id="246" depart="590.40">
        <route edges="-gneE4 -gneE2"/>
    </vehicle>
    <vehicle id="247" depart="592.80">
        <route edges="-gneE6 gneE4"/>
    </vehicle>
    <vehicle id="248" depart="595.20">
        <route edges="-gneE4 -gneE2"/>
    </vehicle>
    <vehicle id="251" depart="602.40">
        <route edges="gneE2 -gneE3"/>
    </vehicle>
    <vehicle id="253" depart="607.20">
        <route edges="-gneE4 -gneE3"/>
    </vehicle>
    <vehicle id="256" depart="614.40">
        <route edges="-gneE6 -gneE3"/>
    </vehicle>
    <vehicle id="257" depart="616.80">
        <route edges="-gneE6 gneE4"/>
    </vehicle>
    <vehicle id="259" depart="621.60">
        <route edges="-gneE4 -gneE3"/>
    </vehicle>
    <vehicle id="261" depart="626.40">
        <route edges="-gneE4 gneE6"/>
    </vehicle>
    <vehicle id="263" depart="631.20">
        <route edges="-gneE6 -gneE3"/>
    </vehicle>
    <vehicle id="264" depart="633.60">
        <route edges="gneE2 gneE4"/>
    </vehicle>
    <vehicle id="265" depart="636.00">
        <route edges="gneE3 gneE6"/>
    </vehicle>
    <vehicle id="266" depart="638.40">
        <route edges="-gneE6 -gneE2"/>
    </vehicle>
    <vehicle id="268" depart="643.20">
        <route edges="gneE2 gneE6"/>
    </vehicle>
    <vehicle id="271" depart="650.40">
        <route edges="gneE3 gneE4"/>
    </vehicle>
    <vehicle id="273" depart="655.20">
        <route edges="-gneE6 -gneE2"/>
    </vehicle>
    <vehicle id="274" depart="657.60">
        <route edges="gneE3 -gneE2"/>
    </vehicle>
    <vehicle id="275" depart="660.00">
        <route edges="gneE2 gneE6"/>
    </vehicle>
    <vehicle id="277" depart="664.80">
        <route edges="gneE3 gneE6"/>
    </vehicle>
    <vehicle id="278" depart="667.20">
        <route edges="-gneE6 -gneE2"/>
    </vehicle>
    <vehicle id="279" depart="669.60">
        <route edges="gneE3 gneE6"/>
    </vehicle>
    <vehicle id="280" depart="672.00">
        <route edges="-gneE6 -gneE3"/>
    </vehicle>
    <vehicle id="281" depart="674.40">
        <route edges="-gneE4 -gneE2"/>
    </vehicle>
    <vehicle id="282" depart="676.80">
        <route edges="-gneE6 gneE4"/>
    </vehicle>
    <vehicle id="283" depart="679.20">
        <route edges="gneE2 -gneE3"/>
    </vehicle>
    <vehicle id="285" depart="684.00">
        <route edges="gneE3 gneE6"/>
    </vehicle>
    <vehicle id="286" depart="686.40">
        <route edges="-gneE6 -gneE3"/>
    </vehicle>
    <vehicle id="287" depart="688.80">
        <route edges="gneE3 gneE4"/>
    </vehicle>
    <vehicle id="288" depart="691.20">
        <route edges="gneE3 gneE4"/>
    </vehicle>
    <vehicle id="291" depart="698.40">
        <route edges="gneE3 -gneE2"/>
    </vehicle>
    <vehicle id="292" depart="700.80">
        <route edges="gneE3 gneE4"/>
    </vehicle>
    <vehicle id="294" depart="705.60">
        <route edges="gneE3 gneE4"/>
    </vehicle>
    <vehicle id="295" depart="708.00">
        <route edges="gneE2 gneE6"/>
    </vehicle>
    <vehicle id="296" depart="710.40">
        <route edges="-gneE4 -gneE3"/>
    </vehicle>
    <vehicle id="297" depart="712.80">
        <route edges="gneE2 gneE4"/>
    </vehicle>
    <vehicle id="298" depart="715.20">
        <route edges="-gneE4 gneE6"/>
    </vehicle>
    <vehicle id="299" depart="717.60">
        <route edges="-gneE6 -gneE2"/>
    </vehicle>
    <vehicle id="301" depart="722.40">
        <route edges="-gneE6 -gneE3"/>
    </vehicle>
    <vehicle id="302" depart="724.80">
        <route edges="-gneE6 -gneE2"/>
    </vehicle>
    <vehicle id="303" depart="727.20">
        <route edges="gneE3 gneE6"/>
    </vehicle>
    <vehicle id="304" depart="729.60">
        <route edges="-gneE6 gneE4"/>
    </vehicle>
    <vehicle id="306" depart="734.40">
        <route edges="-gneE6 -gneE3"/>
    </vehicle>
    <vehicle id="307" depart="736.80">
        <route edges="gneE2 gneE6"/>
    </vehicle>
    <vehicle id="308" depart="739.20">
        <route edges="-gneE6 gneE4"/>
    </vehicle>
    <vehicle id="309" depart="741.60">
        <route edges="gneE2 gneE4"/>
    </vehicle>
    <vehicle id="310" depart="744.00">
        <route edges="-gneE6 gneE4"/>
    </vehicle>
    <vehicle id="311" depart="746.40">
        <route edges="gneE3 gneE4"/>
    </vehicle>
    <vehicle id="313" depart="751.20">
        <route edges="-gneE6 -gneE2"/>
    </vehicle>
    <vehicle id="314" depart="753.60">
        <route edges="gneE3 gneE4"/>
    </vehicle>
    <vehicle id="316" depart="758.40">
        <route edges="-gneE6 -gneE3"/>
    </vehicle>
    <vehicle id="317" depart="760.80">
        <route edges="-gneE6 gneE4"/>
    </vehicle>
    <vehicle id="319" depart="765.60">
        <route edges="gneE2 -gneE3"/>
    </vehicle>
    <vehicle id="320" depart="768.00">
        <route edges="gneE3 -gneE2"/>
    </vehicle>
    <vehicle id="321" depart="770.40">
        <route edges="gneE2 gneE6"/>
    </vehicle>
    <vehicle id="322" depart="772.80">
        <route edges="-gneE6 -gneE2"/>
    </vehicle>
    <vehicle id="324" depart="777.60">
        <route edges="-gneE6 gneE4"/>
    </vehicle>
    <vehicle id="326" depart="782.40">
        <route edges="-gneE6 -gneE3"/>
    </vehicle>
    <vehicle id="327" depart="784.80">
        <route edges="gneE2 gneE4"/>
    </vehicle>
    <vehicle id="328" depart="787.20">
        <route edges="gneE2 gneE6"/>
    </vehicle>
    <vehicle id="329" depart="789.60">
        <route edges="-gneE4 -gneE2"/>
    </vehicle>
    <vehicle id="330" depart="792.00">
        <route edges="gneE2 gneE6"/>
    </vehicle>
    <vehicle id="334" depart="801.60">
        <route edges="-gneE4 gneE6"/>
    </vehicle>
    <vehicle id="337" depart="808.80">
        <route edges="-gneE4 -gneE3"/>
    </vehicle>
    <vehicle id="338" depart="811.20">
        <route edges="gneE3 gneE4"/>
    </vehicle>
    <vehicle id="340" depart="816.00">
        <route edges="gneE2 gneE6"/>
    </vehicle>
    <vehicle id="341" depart="818.40">
        <route edges="gneE2 -gneE3"/>
    </vehicle>
    <vehicle id="342" depart="820.80">
        <route edges="-gneE6 gneE4"/>
    </vehicle>
    <vehicle id="343" depart="823.20">
        <route edges="-gneE4 -gneE2"/>
    </vehicle>
    <vehicle id="344" depart="825.60">
        <route edges="gneE2 gneE6"/>
    </vehicle>
    <vehicle id="346" depart="830.40">
        <route edges="gneE2 gneE6"/>
    </vehicle>
    <vehicle id="347" depart="832.80">
        <route edges="-gneE4 -gneE2"/>
    </vehicle>
    <vehicle id="348" depart="835.20">
        <route edges="-gneE6 gneE4"/>
    </vehicle>
    <vehicle id="350" depart="840.00">
        <route edges="-gneE6 -gneE3"/>
    </vehicle>
    <vehicle id="352" depart="844.80">
        <route edges="gneE3 gneE6"/>
    </vehicle>
    <vehicle id="353" depart="847.20">
        <route edges="-gneE6 gneE4"/>
    </vehicle>
    <vehicle id="355" depart="852.00">
        <route edges="gneE2 -gneE3"/>
    </vehicle>
    <vehicle id="358" depart="859.20">
        <route edges="-gneE6 -gneE2"/>
    </vehicle>
    <vehicle id="360" depart="864.00">
        <route edges="gneE2 -gneE3"/>
    </vehicle>
    <vehicle id="361" depart="866.40">
        <route edges="-gneE6 -gneE3"/>
    </vehicle>
    <vehicle id="362" depart="868.80">
        <route edges="gneE2 -gneE3"/>
    </vehicle>
    <vehicle id="363" depart="871.20">
        <route edges="-gneE4 gneE6"/>
    </vehicle>
    <vehicle id="364" depart="873.60">
        <route edges="-gneE4 -gneE2"/>
    </vehicle>
    <vehicle id="365" depart="876.00">
        <route edges="-gneE6 -gneE2"/>
    </vehicle>
    <vehicle id="366" depart="878.40">
        <route edges="gneE3 gneE6"/>
    </vehicle>
    <vehicle id="367" depart="880.80">
        <route edges="-gneE4 -gneE2"/>
    </vehicle>
    <vehicle id="368" depart="883.20">
        <route edges="-gneE6 gneE4"/>
    </vehicle>
    <vehicle id="369" depart="885.60">
        <route edges="-gneE4 -gneE3"/>
    </vehicle>
    <vehicle id="370" depart="888.00">
        <route edges="gneE3 gneE4"/>
    </vehicle>
    <vehicle id="371" depart="890.40">
        <route edges="gneE3 gneE4"/>
    </vehicle>
    <vehicle id="372" depart="892.80">
        <route edges="gneE2 gneE4"/>
    </vehicle>
    <vehicle id="373" depart="895.20">
        <route edges="gneE2 gneE6"/>
    </vehicle>
    <vehicle id="374" depart="897.60">
        <route edges="-gneE4 -gneE3"/>
    </vehicle>
    <vehicle id="377" depart="904.80">
        <route edges="gneE2 -gneE3"/>
    </vehicle>
    <vehicle id="378" depart="907.20">
        <route edges="-gneE6 gneE4"/>
    </vehicle>
    <vehicle id="379" depart="909.60">
        <route edges="gneE3 gneE6"/>
    </vehicle>
    <vehicle id="380" depart="912.00">
        <route edges="gneE2 -gneE3"/>
    </vehicle>
    <vehicle id="381" depart="914.40">
        <route edges="gneE3 gneE4"/>
    </vehicle>
    <vehicle id="383" depart="919.20">
        <route edges="-gneE6 -gneE2"/>
    </vehicle>
    <vehicle id="384" depart="921.60">
        <route edges="gneE3 gneE4"/>
    </vehicle>
    <vehicle id="385" depart="924.00">
        <route edges="gneE3 -gneE2"/>
    </vehicle>
    <vehicle id="386" depart="926.40">
        <route edges="-gneE6 -gneE3"/>
    </vehicle>
    <vehicle id="387" depart="928.80">
        <route edges="-gneE6 -gneE2"/>
    </vehicle>
    <vehicle id="388" depart="931.20">
        <route edges="gneE3 gneE4"/>
    </vehicle>
    <vehicle id="391" depart="938.40">
        <route edges="-gneE4 -gneE2"/>
    </vehicle>
    <vehicle id="393" depart="943.20">
        <route edges="-gneE6 -gneE2"/>
    </vehicle>
    <vehicle id="395" depart="948.00">
        <route edges="-gneE6 -gneE2"/>
    </vehicle>
    <vehicle id="396" depart="950.40">
        <route edges="-gneE6 -gneE3"/>
    </vehicle>
    <vehicle id="397" depart="952.80">
        <route edges="-gneE6 -gneE3"/>
    </vehicle>
    <vehicle id="398" depart="955.20">
        <route edges="-gneE6 -gneE3"/>
    </vehicle>
    <vehicle id="399" depart="957.60">
        <route edges="gneE3 gneE6"/>
    </vehicle>
    <vehicle id="400" depart="960.00">
        <route edges="-gneE4 -gneE2"/>
    </vehicle>
    <vehicle id="401" depart="962.40">
        <route edges="gneE3 gneE4"/>
    </vehicle>
    <vehicle id="403" depart="967.20">
        <route edges="-gneE4 -gneE2"/>
    </vehicle>
    <vehicle id="404" depart="969.60">
        <route edges="gneE2 gneE4"/>
    </vehicle>
    <vehicle id="405" depart="972.00">
        <route edges="-gneE6 -gneE2"/>
    </vehicle>
    <vehicle id="406" depart="974.40">
        <route edges="-gneE6 -gneE2"/>
    </vehicle>
    <vehicle id="407" depart="976.80">
        <route edges="gneE3 gneE6"/>
    </vehicle>
    <vehicle id="408" depart="979.20">
        <route edges="gneE3 -gneE2"/>
    </vehicle>
    <vehicle id="409" depart="981.60">
        <route edges="gneE2 -gneE3"/>
    </vehicle>
    <vehicle id="410" depart="984.00">
        <route edges="gneE3 gneE6"/>
    </vehicle>
    <vehicle id="411" depart="986.40">
        <route edges="-gneE6 -gneE3"/>
    </vehicle>
    <vehicle id="412" depart="988.80">
        <route edges="-gneE4 -gneE3"/>
    </vehicle>
    <vehicle id="414" depart="993.60">
        <route edges="gneE3 gneE4"/>
    </vehicle>
    <vehicle id="415" depart="996.00">
        <route edges="gneE3 -gneE2"/>
    </vehicle>
    <vehicle id="416" depart="998.40">
        <route edges="-gneE6 -gneE3"/>
    </vehicle>
</routes>
