<?xml version="1.0" encoding="UTF-8"?>

<!-- generated on Sun May  6 20:59:10 2018 by SUMO duarouter Version 0.30.0
<?xml version="1.0" encoding="UTF-8"?>

<configuration xmlns:xsi="http://www.w3.org/2001/XMLSchema-instance" xsi:noNamespaceSchemaLocation="http://sumo.dlr.de/xsd/duarouterConfiguration.xsd">

    <input>
        <net-file value="cross/cross.net.xml"/>
        <route-files value="trips.trips.xml"/>
    </input>

    <output>
        <output-file value="cross/route/cross-2.5-8.rou.xml"/>
    </output>

    <processing>
        <ignore-errors value="true"/>
    </processing>

    <time>
        <begin value="0.0"/>
        <end value="1000.0"/>
    </time>

    <report>
        <no-warnings value="true"/>
        <no-step-log value="true"/>
    </report>

</configuration>
-->

<routes xmlns:xsi="http://www.w3.org/2001/XMLSchema-instance" xsi:noNamespaceSchemaLocation="http://sumo.dlr.de/xsd/routes_file.xsd">
    <vehicle id="2" depart="5.00">
        <route edges="gneE3 gneE6"/>
    </vehicle>
    <vehicle id="3" depart="7.50">
        <route edges="-gneE6 -gneE3"/>
    </vehicle>
    <vehicle id="4" depart="10.00">
        <route edges="-gneE4 gneE6"/>
    </vehicle>
    <vehicle id="5" depart="12.50">
        <route edges="gneE2 -gneE3"/>
    </vehicle>
    <vehicle id="6" depart="15.00">
        <route edges="gneE2 gneE4"/>
    </vehicle>
    <vehicle id="7" depart="17.50">
        <route edges="gneE2 gneE6"/>
    </vehicle>
    <vehicle id="8" depart="20.00">
        <route edges="gneE3 gneE4"/>
    </vehicle>
    <vehicle id="9" depart="22.50">
        <route edges="gneE3 -gneE2"/>
    </vehicle>
    <vehicle id="10" depart="25.00">
        <route edges="gneE3 -gneE2"/>
    </vehicle>
    <vehicle id="11" depart="27.50">
        <route edges="-gneE4 -gneE2"/>
    </vehicle>
    <vehicle id="12" depart="30.00">
        <route edges="-gneE4 -gneE2"/>
    </vehicle>
    <vehicle id="19" depart="47.50">
        <route edges="-gneE6 -gneE3"/>
    </vehicle>
    <vehicle id="21" depart="52.50">
        <route edges="gneE2 -gneE3"/>
    </vehicle>
    <vehicle id="22" depart="55.00">
        <route edges="gneE3 -gneE2"/>
    </vehicle>
    <vehicle id="23" depart="57.50">
        <route edges="-gneE4 -gneE3"/>
    </vehicle>
    <vehicle id="24" depart="60.00">
        <route edges="gneE2 -gneE3"/>
    </vehicle>
    <vehicle id="25" depart="62.50">
        <route edges="gneE3 -gneE2"/>
    </vehicle>
    <vehicle id="27" depart="67.50">
        <route edges="gneE2 gneE4"/>
    </vehicle>
    <vehicle id="28" depart="70.00">
        <route edges="-gneE4 -gneE3"/>
    </vehicle>
    <vehicle id="29" depart="72.50">
        <route edges="-gneE4 -gneE2"/>
    </vehicle>
    <vehicle id="30" depart="75.00">
        <route edges="gneE3 gneE4"/>
    </vehicle>
    <vehicle id="31" depart="77.50">
        <route edges="gneE3 gneE6"/>
    </vehicle>
    <vehicle id="32" depart="80.00">
        <route edges="-gneE6 gneE4"/>
    </vehicle>
    <vehicle id="33" depart="82.50">
        <route edges="-gneE4 -gneE3"/>
    </vehicle>
    <vehicle id="34" depart="85.00">
        <route edges="gneE3 gneE4"/>
    </vehicle>
    <vehicle id="35" depart="87.50">
        <route edges="gneE3 -gneE2"/>
    </vehicle>
    <vehicle id="36" depart="90.00">
        <route edges="gneE3 gneE6"/>
    </vehicle>
    <vehicle id="37" depart="92.50">
        <route edges="-gneE4 gneE6"/>
    </vehicle>
    <vehicle id="43" depart="107.50">
        <route edges="gneE2 -gneE3"/>
    </vehicle>
    <vehicle id="45" depart="112.50">
        <route edges="-gneE4 -gneE2"/>
    </vehicle>
    <vehicle id="46" depart="115.00">
        <route edges="gneE2 gneE4"/>
    </vehicle>
    <vehicle id="47" depart="117.50">
        <route edges="gneE3 gneE6"/>
    </vehicle>
    <vehicle id="48" depart="120.00">
        <route edges="gneE3 gneE6"/>
    </vehicle>
    <vehicle id="50" depart="125.00">
        <route edges="gneE2 gneE4"/>
    </vehicle>
    <vehicle id="51" depart="127.50">
        <route edges="gneE3 gneE4"/>
    </vehicle>
    <vehicle id="52" depart="130.00">
        <route edges="-gneE6 -gneE3"/>
    </vehicle>
    <vehicle id="53" depart="132.50">
        <route edges="-gneE4 -gneE3"/>
    </vehicle>
    <vehicle id="54" depart="135.00">
        <route edges="gneE2 gneE6"/>
    </vehicle>
    <vehicle id="55" depart="137.50">
        <route edges="gneE2 -gneE3"/>
    </vehicle>
    <vehicle id="56" depart="140.00">
        <route edges="gneE2 gneE4"/>
    </vehicle>
    <vehicle id="58" depart="145.00">
        <route edges="-gneE6 -gneE3"/>
    </vehicle>
    <vehicle id="59" depart="147.50">
        <route edges="gneE2 gneE6"/>
    </vehicle>
    <vehicle id="61" depart="152.50">
        <route edges="gneE3 gneE4"/>
    </vehicle>
    <vehicle id="62" depart="155.00">
        <route edges="-gneE4 -gneE2"/>
    </vehicle>
    <vehicle id="63" depart="157.50">
        <route edges="gneE3 gneE4"/>
    </vehicle>
    <vehicle id="65" depart="162.50">
        <route edges="-gneE4 -gneE3"/>
    </vehicle>
    <vehicle id="66" depart="165.00">
        <route edges="-gneE6 -gneE2"/>
    </vehicle>
    <vehicle id="68" depart="170.00">
        <route edges="-gneE4 gneE6"/>
    </vehicle>
    <vehicle id="69" depart="172.50">
        <route edges="-gneE6 -gneE2"/>
    </vehicle>
    <vehicle id="70" depart="175.00">
        <route edges="-gneE4 -gneE2"/>
    </vehicle>
    <vehicle id="71" depart="177.50">
        <route edges="gneE2 gneE4"/>
    </vehicle>
    <vehicle id="72" depart="180.00">
        <route edges="-gneE4 -gneE2"/>
    </vehicle>
    <vehicle id="74" depart="185.00">
        <route edges="-gneE4 -gneE3"/>
    </vehicle>
    <vehicle id="75" depart="187.50">
        <route edges="-gneE4 -gneE2"/>
    </vehicle>
    <vehicle id="77" depart="192.50">
        <route edges="-gneE6 gneE4"/>
    </vehicle>
    <vehicle id="78" depart="195.00">
        <route edges="-gneE4 gneE6"/>
    </vehicle>
    <vehicle id="79" depart="197.50">
        <route edges="gneE3 gneE4"/>
    </vehicle>
    <vehicle id="80" depart="200.00">
        <route edges="-gneE4 gneE6"/>
    </vehicle>
    <vehicle id="83" depart="207.50">
        <route edges="gneE2 gneE6"/>
    </vehicle>
    <vehicle id="84" depart="210.00">
        <route edges="-gneE6 -gneE3"/>
    </vehicle>
    <vehicle id="85" depart="212.50">
        <route edges="gneE2 gneE4"/>
    </vehicle>
    <vehicle id="86" depart="215.00">
        <route edges="-gneE4 -gneE2"/>
    </vehicle>
    <vehicle id="88" depart="220.00">
        <route edges="-gneE6 -gneE2"/>
    </vehicle>
    <vehicle id="89" depart="222.50">
        <route edges="-gneE4 gneE6"/>
    </vehicle>
    <vehicle id="90" depart="225.00">
        <route edges="-gneE6 -gneE2"/>
    </vehicle>
    <vehicle id="91" depart="227.50">
        <route edges="-gneE4 -gneE2"/>
    </vehicle>
    <vehicle id="92" depart="230.00">
        <route edges="-gneE4 -gneE3"/>
    </vehicle>
    <vehicle id="93" depart="232.50">
        <route edges="-gneE6 -gneE2"/>
    </vehicle>
    <vehicle id="94" depart="235.00">
        <route edges="gneE2 gneE6"/>
    </vehicle>
    <vehicle id="95" depart="237.50">
        <route edges="-gneE6 gneE4"/>
    </vehicle>
    <vehicle id="96" depart="240.00">
        <route edges="gneE3 -gneE2"/>
    </vehicle>
    <vehicle id="97" depart="242.50">
        <route edges="-gneE4 -gneE3"/>
    </vehicle>
    <vehicle id="99" depart="247.50">
        <route edges="gneE3 -gneE2"/>
    </vehicle>
    <vehicle id="100" depart="250.00">
        <route edges="gneE2 -gneE3"/>
    </vehicle>
    <vehicle id="102" depart="255.00">
        <route edges="gneE3 gneE6"/>
    </vehicle>
    <vehicle id="103" depart="257.50">
        <route edges="-gneE4 -gneE2"/>
    </vehicle>
    <vehicle id="106" depart="265.00">
        <route edges="gneE2 -gneE3"/>
    </vehicle>
    <vehicle id="109" depart="272.50">
        <route edges="-gneE6 -gneE3"/>
    </vehicle>
    <vehicle id="112" depart="280.00">
        <route edges="gneE3 gneE4"/>
    </vehicle>
    <vehicle id="113" depart="282.50">
        <route edges="-gneE4 -gneE3"/>
    </vehicle>
    <vehicle id="115" depart="287.50">
        <route edges="gneE2 -gneE3"/>
    </vehicle>
    <vehicle id="116" depart="290.00">
        <route edges="-gneE4 -gneE2"/>
    </vehicle>
    <vehicle id="117" depart="292.50">
        <route edges="-gneE6 -gneE2"/>
    </vehicle>
    <vehicle id="118" depart="295.00">
        <route edges="gneE2 gneE4"/>
    </vehicle>
    <vehicle id="119" depart="297.50">
        <route edges="-gneE6 -gneE2"/>
    </vehicle>
    <vehicle id="120" depart="300.00">
        <route edges="gneE3 gneE4"/>
    </vehicle>
    <vehicle id="121" depart="302.50">
        <route edges="gneE2 gneE4"/>
    </vehicle>
    <vehicle id="122" depart="305.00">
        <route edges="-gneE6 -gneE3"/>
    </vehicle>
    <vehicle id="124" depart="310.00">
        <route edges="-gneE4 -gneE3"/>
    </vehicle>
    <vehicle id="125" depart="312.50">
        <route edges="-gneE4 gneE6"/>
    </vehicle>
    <vehicle id="127" depart="317.50">
        <route edges="gneE3 gneE6"/>
    </vehicle>
    <vehicle id="128" depart="320.00">
        <route edges="gneE2 -gneE3"/>
    </vehicle>
    <vehicle id="129" depart="322.50">
        <route edges="gneE2 gneE4"/>
    </vehicle>
    <vehicle id="130" depart="325.00">
        <route edges="-gneE6 -gneE2"/>
    </vehicle>
    <vehicle id="131" depart="327.50">
        <route edges="-gneE6 gneE4"/>
    </vehicle>
    <vehicle id="132" depart="330.00">
        <route edges="-gneE6 gneE4"/>
    </vehicle>
    <vehicle id="134" depart="335.00">
        <route edges="-gneE4 -gneE2"/>
    </vehicle>
    <vehicle id="135" depart="337.50">
        <route edges="gneE3 gneE6"/>
    </vehicle>
    <vehicle id="136" depart="340.00">
        <route edges="gneE3 gneE4"/>
    </vehicle>
    <vehicle id="138" depart="345.00">
        <route edges="-gneE6 gneE4"/>
    </vehicle>
    <vehicle id="140" depart="350.00">
        <route edges="gneE2 gneE4"/>
    </vehicle>
    <vehicle id="142" depart="355.00">
        <route edges="-gneE4 -gneE2"/>
    </vehicle>
    <vehicle id="144" depart="360.00">
        <route edges="gneE2 -gneE3"/>
    </vehicle>
    <vehicle id="145" depart="362.50">
        <route edges="gneE2 -gneE3"/>
    </vehicle>
    <vehicle id="146" depart="365.00">
        <route edges="-gneE6 gneE4"/>
    </vehicle>
    <vehicle id="148" depart="370.00">
        <route edges="-gneE6 -gneE2"/>
    </vehicle>
    <vehicle id="149" depart="372.50">
        <route edges="gneE2 -gneE3"/>
    </vehicle>
    <vehicle id="150" depart="375.00">
        <route edges="gneE2 gneE4"/>
    </vehicle>
    <vehicle id="151" depart="377.50">
        <route edges="gneE3 -gneE2"/>
    </vehicle>
    <vehicle id="152" depart="380.00">
        <route edges="gneE2 -gneE3"/>
    </vehicle>
    <vehicle id="153" depart="382.50">
        <route edges="gneE3 -gneE2"/>
    </vehicle>
    <vehicle id="154" depart="385.00">
        <route edges="gneE3 -gneE2"/>
    </vehicle>
    <vehicle id="155" depart="387.50">
        <route edges="-gneE4 gneE6"/>
    </vehicle>
    <vehicle id="158" depart="395.00">
        <route edges="gneE2 gneE6"/>
    </vehicle>
    <vehicle id="159" depart="397.50">
        <route edges="-gneE4 -gneE2"/>
    </vehicle>
    <vehicle id="160" depart="400.00">
        <route edges="gneE2 -gneE3"/>
    </vehicle>
    <vehicle id="162" depart="405.00">
        <route edges="-gneE4 gneE6"/>
    </vehicle>
    <vehicle id="163" depart="407.50">
        <route edges="gneE2 gneE4"/>
    </vehicle>
    <vehicle id="164" depart="410.00">
        <route edges="-gneE4 -gneE2"/>
    </vehicle>
    <vehicle id="165" depart="412.50">
        <route edges="-gneE6 -gneE3"/>
    </vehicle>
    <vehicle id="167" depart="417.50">
        <route edges="-gneE4 gneE6"/>
    </vehicle>
    <vehicle id="169" depart="422.50">
        <route edges="-gneE6 -gneE3"/>
    </vehicle>
    <vehicle id="170" depart="425.00">
        <route edges="-gneE4 -gneE3"/>
    </vehicle>
    <vehicle id="171" depart="427.50">
        <route edges="-gneE6 -gneE3"/>
    </vehicle>
    <vehicle id="173" depart="432.50">
        <route edges="-gneE4 -gneE2"/>
    </vehicle>
    <vehicle id="174" depart="435.00">
        <route edges="gneE2 -gneE3"/>
    </vehicle>
    <vehicle id="175" depart="437.50">
        <route edges="-gneE4 -gneE3"/>
    </vehicle>
    <vehicle id="176" depart="440.00">
        <route edges="gneE3 gneE4"/>
    </vehicle>
    <vehicle id="177" depart="442.50">
        <route edges="-gneE4 gneE6"/>
    </vehicle>
    <vehicle id="179" depart="447.50">
        <route edges="gneE2 -gneE3"/>
    </vehicle>
    <vehicle id="181" depart="452.50">
        <route edges="-gneE6 -gneE3"/>
    </vehicle>
    <vehicle id="182" depart="455.00">
        <route edges="-gneE6 -gneE2"/>
    </vehicle>
    <vehicle id="183" depart="457.50">
        <route edges="-gneE6 -gneE3"/>
    </vehicle>
    <vehicle id="184" depart="460.00">
        <route edges="gneE2 gneE6"/>
    </vehicle>
    <vehicle id="185" depart="462.50">
        <route edges="-gneE6 -gneE3"/>
    </vehicle>
    <vehicle id="186" depart="465.00">
        <route edges="-gneE4 -gneE2"/>
    </vehicle>
    <vehicle id="187" depart="467.50">
        <route edges="-gneE6 -gneE3"/>
    </vehicle>
    <vehicle id="188" depart="470.00">
        <route edges="gneE3 gneE4"/>
    </vehicle>
    <vehicle id="190" depart="475.00">
        <route edges="gneE2 -gneE3"/>
    </vehicle>
    <vehicle id="192" depart="480.00">
        <route edges="gneE2 gneE4"/>
    </vehicle>
    <vehicle id="195" depart="487.50">
        <route edges="-gneE6 -gneE3"/>
    </vehicle>
    <vehicle id="196" depart="490.00">
        <route edges="-gneE4 -gneE3"/>
    </vehicle>
    <vehicle id="197" depart="492.50">
        <route edges="gneE2 -gneE3"/>
    </vehicle>
    <vehicle id="198" depart="495.00">
        <route edges="-gneE6 -gneE2"/>
    </vehicle>
    <vehicle id="199" depart="497.50">
        <route edges="-gneE6 -gneE3"/>
    </vehicle>
    <vehicle id="200" depart="500.00">
        <route edges="-gneE6 gneE4"/>
    </vehicle>
    <vehicle id="201" depart="502.50">
        <route edges="gneE2 -gneE3"/>
    </vehicle>
    <vehicle id="202" depart="505.00">
        <route edges="gneE3 gneE4"/>
    </vehicle>
    <vehicle id="203" depart="507.50">
        <route edges="gneE2 -gneE3"/>
    </vehicle>
    <vehicle id="204" depart="510.00">
        <route edges="-gneE4 gneE6"/>
    </vehicle>
    <vehicle id="205" depart="512.50">
        <route edges="-gneE4 -gneE3"/>
    </vehicle>
    <vehicle id="206" depart="515.00">
        <route edges="gneE3 gneE4"/>
    </vehicle>
    <vehicle id="207" depart="517.50">
        <route edges="-gneE4 -gneE3"/>
    </vehicle>
    <vehicle id="209" depart="522.50">
        <route edges="gneE3 -gneE2"/>
    </vehicle>
    <vehicle id="210" depart="525.00">
        <route edges="gneE3 -gneE2"/>
    </vehicle>
    <vehicle id="211" depart="527.50">
        <route edges="gneE3 -gneE2"/>
    </vehicle>
    <vehicle id="213" depart="532.50">
        <route edges="-gneE4 -gneE3"/>
    </vehicle>
    <vehicle id="219" depart="547.50">
        <route edges="-gneE6 -gneE3"/>
    </vehicle>
    <vehicle id="221" depart="552.50">
        <route edges="-gneE4 -gneE2"/>
    </vehicle>
    <vehicle id="222" depart="555.00">
        <route edges="gneE3 gneE6"/>
    </vehicle>
    <vehicle id="223" depart="557.50">
        <route edges="gneE2 -gneE3"/>
    </vehicle>
    <vehicle id="224" depart="560.00">
        <route edges="-gneE6 gneE4"/>
    </vehicle>
    <vehicle id="227" depart="567.50">
        <route edges="gneE2 gneE6"/>
    </vehicle>
    <vehicle id="228" depart="570.00">
        <route edges="-gneE4 gneE6"/>
    </vehicle>
    <vehicle id="231" depart="577.50">
        <route edges="gneE3 gneE4"/>
    </vehicle>
    <vehicle id="232" depart="580.00">
        <route edges="-gneE4 -gneE2"/>
    </vehicle>
    <vehicle id="233" depart="582.50">
        <route edges="-gneE6 -gneE2"/>
    </vehicle>
    <vehicle id="235" depart="587.50">
        <route edges="gneE2 gneE4"/>
    </vehicle>
    <vehicle id="236" depart="590.00">
        <route edges="gneE3 gneE6"/>
    </vehicle>
    <vehicle id="239" depart="597.50">
        <route edges="gneE3 gneE6"/>
    </vehicle>
    <vehicle id="240" depart="600.00">
        <route edges="gneE3 gneE6"/>
    </vehicle>
    <vehicle id="241" depart="602.50">
        <route edges="-gneE4 -gneE2"/>
    </vehicle>
    <vehicle id="242" depart="605.00">
        <route edges="gneE3 gneE4"/>
    </vehicle>
    <vehicle id="244" depart="610.00">
        <route edges="gneE2 gneE4"/>
    </vehicle>
    <vehicle id="245" depart="612.50">
        <route edges="gneE2 gneE4"/>
    </vehicle>
    <vehicle id="246" depart="615.00">
        <route edges="gneE3 gneE4"/>
    </vehicle>
    <vehicle id="247" depart="617.50">
        <route edges="-gneE4 -gneE2"/>
    </vehicle>
    <vehicle id="249" depart="622.50">
        <route edges="gneE2 -gneE3"/>
    </vehicle>
    <vehicle id="250" depart="625.00">
        <route edges="gneE3 gneE6"/>
    </vehicle>
    <vehicle id="252" depart="630.00">
        <route edges="-gneE4 -gneE3"/>
    </vehicle>
    <vehicle id="254" depart="635.00">
        <route edges="-gneE4 -gneE2"/>
    </vehicle>
    <vehicle id="255" depart="637.50">
        <route edges="gneE3 gneE6"/>
    </vehicle>
    <vehicle id="256" depart="640.00">
        <route edges="gneE2 gneE4"/>
    </vehicle>
    <vehicle id="257" depart="642.50">
        <route edges="-gneE4 gneE6"/>
    </vehicle>
    <vehicle id="258" depart="645.00">
        <route edges="-gneE6 gneE4"/>
    </vehicle>
    <vehicle id="259" depart="647.50">
        <route edges="-gneE4 -gneE2"/>
    </vehicle>
    <vehicle id="262" depart="655.00">
        <route edges="gneE2 -gneE3"/>
    </vehicle>
    <vehicle id="263" depart="657.50">
        <route edges="-gneE6 gneE4"/>
    </vehicle>
    <vehicle id="264" depart="660.00">
        <route edges="-gneE6 gneE4"/>
    </vehicle>
    <vehicle id="265" depart="662.50">
        <route edges="gneE2 -gneE3"/>
    </vehicle>
    <vehicle id="267" depart="667.50">
        <route edges="-gneE4 gneE6"/>
    </vehicle>
    <vehicle id="268" depart="670.00">
        <route edges="gneE3 gneE4"/>
    </vehicle>
    <vehicle id="269" depart="672.50">
        <route edges="-gneE6 gneE4"/>
    </vehicle>
    <vehicle id="270" depart="675.00">
        <route edges="gneE2 gneE4"/>
    </vehicle>
    <vehicle id="271" depart="677.50">
        <route edges="-gneE6 -gneE2"/>
    </vehicle>
    <vehicle id="273" depart="682.50">
        <route edges="gneE3 gneE6"/>
    </vehicle>
    <vehicle id="274" depart="685.00">
        <route edges="-gneE6 gneE4"/>
    </vehicle>
    <vehicle id="275" depart="687.50">
        <route edges="-gneE6 -gneE2"/>
    </vehicle>
    <vehicle id="277" depart="692.50">
        <route edges="-gneE6 -gneE2"/>
    </vehicle>
    <vehicle id="280" depart="700.00">
        <route edges="gneE3 gneE4"/>
    </vehicle>
    <vehicle id="281" depart="702.50">
        <route edges="gneE2 gneE4"/>
    </vehicle>
    <vehicle id="282" depart="705.00">
        <route edges="-gneE4 gneE6"/>
    </vehicle>
    <vehicle id="283" depart="707.50">
        <route edges="gneE2 gneE6"/>
    </vehicle>
    <vehicle id="284" depart="710.00">
        <route edges="gneE2 gneE6"/>
    </vehicle>
    <vehicle id="285" depart="712.50">
        <route edges="gneE2 -gneE3"/>
    </vehicle>
    <vehicle id="288" depart="720.00">
        <route edges="-gneE4 gneE6"/>
    </vehicle>
    <vehicle id="289" depart="722.50">
        <route edges="gneE3 -gneE2"/>
    </vehicle>
    <vehicle id="292" depart="730.00">
        <route edges="gneE2 gneE6"/>
    </vehicle>
    <vehicle id="293" depart="732.50">
        <route edges="gneE2 -gneE3"/>
    </vehicle>
    <vehicle id="294" depart="735.00">
        <route edges="-gneE4 gneE6"/>
    </vehicle>
    <vehicle id="295" depart="737.50">
        <route edges="gneE2 -gneE3"/>
    </vehicle>
    <vehicle id="296" depart="740.00">
        <route edges="-gneE4 gneE6"/>
    </vehicle>
    <vehicle id="297" depart="742.50">
        <route edges="gneE3 gneE6"/>
    </vehicle>
    <vehicle id="299" depart="747.50">
        <route edges="-gneE6 -gneE2"/>
    </vehicle>
    <vehicle id="300" depart="750.00">
        <route edges="gneE2 -gneE3"/>
    </vehicle>
    <vehicle id="302" depart="755.00">
        <route edges="-gneE6 -gneE3"/>
    </vehicle>
    <vehicle id="305" depart="762.50">
        <route edges="-gneE6 -gneE2"/>
    </vehicle>
    <vehicle id="306" depart="765.00">
        <route edges="-gneE4 -gneE2"/>
    </vehicle>
    <vehicle id="308" depart="770.00">
        <route edges="gneE3 gneE6"/>
    </vehicle>
    <vehicle id="309" depart="772.50">
        <route edges="-gneE6 -gneE2"/>
    </vehicle>
    <vehicle id="312" depart="780.00">
        <route edges="gneE2 -gneE3"/>
    </vehicle>
    <vehicle id="313" depart="782.50">
        <route edges="gneE3 gneE4"/>
    </vehicle>
    <vehicle id="316" depart="790.00">
        <route edges="-gneE4 -gneE3"/>
    </vehicle>
    <vehicle id="318" depart="795.00">
        <route edges="-gneE4 -gneE3"/>
    </vehicle>
    <vehicle id="319" depart="797.50">
        <route edges="-gneE6 gneE4"/>
    </vehicle>
    <vehicle id="320" depart="800.00">
        <route edges="gneE3 gneE4"/>
    </vehicle>
    <vehicle id="321" depart="802.50">
        <route edges="-gneE6 gneE4"/>
    </vehicle>
    <vehicle id="322" depart="805.00">
        <route edges="-gneE6 -gneE2"/>
    </vehicle>
    <vehicle id="323" depart="807.50">
        <route edges="-gneE6 -gneE2"/>
    </vehicle>
    <vehicle id="324" depart="810.00">
        <route edges="gneE2 -gneE3"/>
    </vehicle>
    <vehicle id="325" depart="812.50">
        <route edges="gneE3 gneE4"/>
    </vehicle>
    <vehicle id="326" depart="815.00">
        <route edges="gneE3 gneE4"/>
    </vehicle>
    <vehicle id="327" depart="817.50">
        <route edges="-gneE6 -gneE2"/>
    </vehicle>
    <vehicle id="328" depart="820.00">
        <route edges="-gneE4 -gneE2"/>
    </vehicle>
    <vehicle id="329" depart="822.50">
        <route edges="gneE3 gneE4"/>
    </vehicle>
    <vehicle id="330" depart="825.00">
        <route edges="-gneE4 -gneE2"/>
    </vehicle>
    <vehicle id="331" depart="827.50">
        <route edges="gneE3 gneE4"/>
    </vehicle>
    <vehicle id="332" depart="830.00">
        <route edges="-gneE6 -gneE2"/>
    </vehicle>
    <vehicle id="333" depart="832.50">
        <route edges="gneE3 -gneE2"/>
    </vehicle>
    <vehicle id="334" depart="835.00">
        <route edges="-gneE4 gneE6"/>
    </vehicle>
    <vehicle id="335" depart="837.50">
        <route edges="-gneE4 gneE6"/>
    </vehicle>
    <vehicle id="337" depart="842.50">
        <route edges="-gneE4 -gneE2"/>
    </vehicle>
    <vehicle id="339" depart="847.50">
        <route edges="-gneE6 -gneE2"/>
    </vehicle>
    <vehicle id="340" depart="850.00">
        <route edges="-gneE4 -gneE3"/>
    </vehicle>
    <vehicle id="342" depart="855.00">
        <route edges="-gneE4 -gneE2"/>
    </vehicle>
    <vehicle id="343" depart="857.50">
        <route edges="-gneE4 -gneE3"/>
    </vehicle>
    <vehicle id="344" depart="860.00">
        <route edges="-gneE4 -gneE3"/>
    </vehicle>
    <vehicle id="345" depart="862.50">
        <route edges="-gneE6 -gneE2"/>
    </vehicle>
    <vehicle id="348" depart="870.00">
        <route edges="-gneE6 -gneE2"/>
    </vehicle>
    <vehicle id="350" depart="875.00">
        <route edges="-gneE6 -gneE2"/>
    </vehicle>
    <vehicle id="351" depart="877.50">
        <route edges="gneE2 gneE6"/>
    </vehicle>
    <vehicle id="353" depart="882.50">
        <route edges="gneE2 gneE6"/>
    </vehicle>
    <vehicle id="354" depart="885.00">
        <route edges="-gneE4 -gneE2"/>
    </vehicle>
    <vehicle id="355" depart="887.50">
        <route edges="gneE2 -gneE3"/>
    </vehicle>
    <vehicle id="357" depart="892.50">
        <route edges="gneE3 gneE6"/>
    </vehicle>
    <vehicle id="358" depart="895.00">
        <route edges="-gneE6 gneE4"/>
    </vehicle>
    <vehicle id="360" depart="900.00">
        <route edges="gneE3 gneE6"/>
    </vehicle>
    <vehicle id="362" depart="905.00">
        <route edges="gneE2 gneE4"/>
    </vehicle>
    <vehicle id="363" depart="907.50">
        <route edges="gneE2 gneE6"/>
    </vehicle>
    <vehicle id="364" depart="910.00">
        <route edges="-gneE6 -gneE3"/>
    </vehicle>
    <vehicle id="365" depart="912.50">
        <route edges="gneE2 -gneE3"/>
    </vehicle>
    <vehicle id="367" depart="917.50">
        <route edges="gneE2 -gneE3"/>
    </vehicle>
    <vehicle id="369" depart="922.50">
        <route edges="gneE3 -gneE2"/>
    </vehicle>
    <vehicle id="370" depart="925.00">
        <route edges="gneE2 gneE6"/>
    </vehicle>
    <vehicle id="371" depart="927.50">
        <route edges="gneE2 gneE6"/>
    </vehicle>
    <vehicle id="372" depart="930.00">
        <route edges="-gneE6 -gneE2"/>
    </vehicle>
    <vehicle id="373" depart="932.50">
        <route edges="gneE3 gneE4"/>
    </vehicle>
    <vehicle id="375" depart="937.50">
        <route edges="gneE3 -gneE2"/>
    </vehicle>
    <vehicle id="376" depart="940.00">
        <route edges="gneE3 gneE4"/>
    </vehicle>
    <vehicle id="377" depart="942.50">
        <route edges="-gneE6 -gneE3"/>
    </vehicle>
    <vehicle id="378" depart="945.00">
        <route edges="-gneE6 -gneE2"/>
    </vehicle>
    <vehicle id="379" depart="947.50">
        <route edges="-gneE6 gneE4"/>
    </vehicle>
    <vehicle id="380" depart="950.00">
        <route edges="gneE2 gneE6"/>
    </vehicle>
    <vehicle id="381" depart="952.50">
        <route edges="-gneE4 -gneE3"/>
    </vehicle>
    <vehicle id="383" depart="957.50">
        <route edges="gneE2 -gneE3"/>
    </vehicle>
    <vehicle id="386" depart="965.00">
        <route edges="-gneE6 gneE4"/>
    </vehicle>
    <vehicle id="387" depart="967.50">
        <route edges="-gneE6 gneE4"/>
    </vehicle>
    <vehicle id="388" depart="970.00">
        <route edges="gneE3 -gneE2"/>
    </vehicle>
    <vehicle id="389" depart="972.50">
        <route edges="gneE3 gneE6"/>
    </vehicle>
    <vehicle id="390" depart="975.00">
        <route edges="gneE2 gneE4"/>
    </vehicle>
    <vehicle id="391" depart="977.50">
        <route edges="gneE3 -gneE2"/>
    </vehicle>
    <vehicle id="392" depart="980.00">
        <route edges="-gneE6 -gneE2"/>
    </vehicle>
    <vehicle id="393" depart="982.50">
        <route edges="-gneE4 -gneE3"/>
    </vehicle>
    <vehicle id="394" depart="985.00">
        <route edges="-gneE6 -gneE3"/>
    </vehicle>
    <vehicle id="395" depart="987.50">
        <route edges="-gneE6 -gneE2"/>
    </vehicle>
    <vehicle id="396" depart="990.00">
        <route edges="-gneE6 -gneE3"/>
    </vehicle>
    <vehicle id="397" depart="992.50">
        <route edges="gneE3 -gneE2"/>
    </vehicle>
    <vehicle id="398" depart="995.00">
        <route edges="-gneE4 gneE6"/>
    </vehicle>
</routes>
