<?xml version="1.0" encoding="UTF-8"?>

<!-- generated on Sun May  6 21:00:20 2018 by SUMO duarouter Version 0.30.0
<?xml version="1.0" encoding="UTF-8"?>

<configuration xmlns:xsi="http://www.w3.org/2001/XMLSchema-instance" xsi:noNamespaceSchemaLocation="http://sumo.dlr.de/xsd/duarouterConfiguration.xsd">

    <input>
        <net-file value="cross/cross.net.xml"/>
        <route-files value="trips.trips.xml"/>
    </input>

    <output>
        <output-file value="cross/route/cross-2.1-5.rou.xml"/>
    </output>

    <processing>
        <ignore-errors value="true"/>
    </processing>

    <time>
        <begin value="0.0"/>
        <end value="1000.0"/>
    </time>

    <report>
        <no-warnings value="true"/>
        <no-step-log value="true"/>
    </report>

</configuration>
-->

<routes xmlns:xsi="http://www.w3.org/2001/XMLSchema-instance" xsi:noNamespaceSchemaLocation="http://sumo.dlr.de/xsd/routes_file.xsd">
    <vehicle id="2" depart="4.20">
        <route edges="gneE2 gneE4"/>
    </vehicle>
    <vehicle id="4" depart="8.40">
        <route edges="-gneE4 -gneE3"/>
    </vehicle>
    <vehicle id="5" depart="10.50">
        <route edges="gneE2 -gneE3"/>
    </vehicle>
    <vehicle id="6" depart="12.60">
        <route edges="gneE2 -gneE3"/>
    </vehicle>
    <vehicle id="7" depart="14.70">
        <route edges="-gneE6 gneE4"/>
    </vehicle>
    <vehicle id="8" depart="16.80">
        <route edges="gneE3 gneE4"/>
    </vehicle>
    <vehicle id="9" depart="18.90">
        <route edges="gneE3 gneE4"/>
    </vehicle>
    <vehicle id="10" depart="21.00">
        <route edges="gneE3 gneE6"/>
    </vehicle>
    <vehicle id="11" depart="23.10">
        <route edges="gneE2 gneE4"/>
    </vehicle>
    <vehicle id="12" depart="25.20">
        <route edges="-gneE4 gneE6"/>
    </vehicle>
    <vehicle id="13" depart="27.30">
        <route edges="-gneE4 -gneE3"/>
    </vehicle>
    <vehicle id="14" depart="29.40">
        <route edges="-gneE4 -gneE3"/>
    </vehicle>
    <vehicle id="17" depart="35.70">
        <route edges="gneE3 gneE4"/>
    </vehicle>
    <vehicle id="18" depart="37.80">
        <route edges="-gneE4 gneE6"/>
    </vehicle>
    <vehicle id="19" depart="39.90">
        <route edges="-gneE6 -gneE3"/>
    </vehicle>
    <vehicle id="21" depart="44.10">
        <route edges="-gneE4 gneE6"/>
    </vehicle>
    <vehicle id="22" depart="46.20">
        <route edges="gneE2 -gneE3"/>
    </vehicle>
    <vehicle id="24" depart="50.40">
        <route edges="-gneE4 -gneE2"/>
    </vehicle>
    <vehicle id="25" depart="52.50">
        <route edges="-gneE4 -gneE3"/>
    </vehicle>
    <vehicle id="26" depart="54.60">
        <route edges="gneE2 gneE4"/>
    </vehicle>
    <vehicle id="27" depart="56.70">
        <route edges="-gneE4 gneE6"/>
    </vehicle>
    <vehicle id="28" depart="58.80">
        <route edges="gneE3 gneE6"/>
    </vehicle>
    <vehicle id="29" depart="60.90">
        <route edges="-gneE4 gneE6"/>
    </vehicle>
    <vehicle id="30" depart="63.00">
        <route edges="-gneE6 -gneE2"/>
    </vehicle>
    <vehicle id="31" depart="65.10">
        <route edges="-gneE6 -gneE3"/>
    </vehicle>
    <vehicle id="32" depart="67.20">
        <route edges="-gneE6 -gneE3"/>
    </vehicle>
    <vehicle id="33" depart="69.30">
        <route edges="-gneE6 -gneE3"/>
    </vehicle>
    <vehicle id="36" depart="75.60">
        <route edges="-gneE6 gneE4"/>
    </vehicle>
    <vehicle id="37" depart="77.70">
        <route edges="gneE3 gneE6"/>
    </vehicle>
    <vehicle id="39" depart="81.90">
        <route edges="gneE2 gneE4"/>
    </vehicle>
    <vehicle id="41" depart="86.10">
        <route edges="gneE3 -gneE2"/>
    </vehicle>
    <vehicle id="43" depart="90.30">
        <route edges="gneE2 gneE6"/>
    </vehicle>
    <vehicle id="44" depart="92.40">
        <route edges="gneE2 -gneE3"/>
    </vehicle>
    <vehicle id="45" depart="94.50">
        <route edges="-gneE6 -gneE2"/>
    </vehicle>
    <vehicle id="46" depart="96.60">
        <route edges="gneE3 -gneE2"/>
    </vehicle>
    <vehicle id="48" depart="100.80">
        <route edges="-gneE6 gneE4"/>
    </vehicle>
    <vehicle id="49" depart="102.90">
        <route edges="-gneE6 -gneE3"/>
    </vehicle>
    <vehicle id="54" depart="113.40">
        <route edges="-gneE4 gneE6"/>
    </vehicle>
    <vehicle id="55" depart="115.50">
        <route edges="-gneE4 gneE6"/>
    </vehicle>
    <vehicle id="56" depart="117.60">
        <route edges="gneE2 -gneE3"/>
    </vehicle>
    <vehicle id="57" depart="119.70">
        <route edges="gneE2 gneE6"/>
    </vehicle>
    <vehicle id="58" depart="121.80">
        <route edges="gneE3 gneE4"/>
    </vehicle>
    <vehicle id="59" depart="123.90">
        <route edges="-gneE4 -gneE3"/>
    </vehicle>
    <vehicle id="62" depart="130.20">
        <route edges="-gneE4 gneE6"/>
    </vehicle>
    <vehicle id="63" depart="132.30">
        <route edges="gneE2 gneE4"/>
    </vehicle>
    <vehicle id="64" depart="134.40">
        <route edges="gneE2 -gneE3"/>
    </vehicle>
    <vehicle id="65" depart="136.50">
        <route edges="-gneE6 -gneE3"/>
    </vehicle>
    <vehicle id="66" depart="138.60">
        <route edges="-gneE4 -gneE3"/>
    </vehicle>
    <vehicle id="67" depart="140.70">
        <route edges="-gneE4 -gneE2"/>
    </vehicle>
    <vehicle id="68" depart="142.80">
        <route edges="-gneE6 -gneE3"/>
    </vehicle>
    <vehicle id="69" depart="144.90">
        <route edges="-gneE4 -gneE3"/>
    </vehicle>
    <vehicle id="70" depart="147.00">
        <route edges="gneE2 gneE6"/>
    </vehicle>
    <vehicle id="71" depart="149.10">
        <route edges="gneE2 -gneE3"/>
    </vehicle>
    <vehicle id="72" depart="151.20">
        <route edges="gneE2 gneE4"/>
    </vehicle>
    <vehicle id="73" depart="153.30">
        <route edges="-gneE6 -gneE3"/>
    </vehicle>
    <vehicle id="75" depart="157.50">
        <route edges="gneE3 gneE6"/>
    </vehicle>
    <vehicle id="76" depart="159.60">
        <route edges="-gneE6 gneE4"/>
    </vehicle>
    <vehicle id="78" depart="163.80">
        <route edges="-gneE6 -gneE2"/>
    </vehicle>
    <vehicle id="80" depart="168.00">
        <route edges="gneE2 gneE4"/>
    </vehicle>
    <vehicle id="81" depart="170.10">
        <route edges="-gneE6 -gneE3"/>
    </vehicle>
    <vehicle id="82" depart="172.20">
        <route edges="-gneE4 -gneE3"/>
    </vehicle>
    <vehicle id="85" depart="178.50">
        <route edges="gneE2 gneE4"/>
    </vehicle>
    <vehicle id="86" depart="180.60">
        <route edges="gneE2 gneE4"/>
    </vehicle>
    <vehicle id="88" depart="184.80">
        <route edges="-gneE4 -gneE2"/>
    </vehicle>
    <vehicle id="89" depart="186.90">
        <route edges="gneE2 -gneE3"/>
    </vehicle>
    <vehicle id="91" depart="191.10">
        <route edges="gneE2 gneE6"/>
    </vehicle>
    <vehicle id="92" depart="193.20">
        <route edges="gneE2 gneE6"/>
    </vehicle>
    <vehicle id="93" depart="195.30">
        <route edges="-gneE4 -gneE2"/>
    </vehicle>
    <vehicle id="95" depart="199.50">
        <route edges="-gneE4 gneE6"/>
    </vehicle>
    <vehicle id="96" depart="201.60">
        <route edges="-gneE6 -gneE2"/>
    </vehicle>
    <vehicle id="97" depart="203.70">
        <route edges="-gneE6 -gneE3"/>
    </vehicle>
    <vehicle id="99" depart="207.90">
        <route edges="-gneE4 -gneE3"/>
    </vehicle>
    <vehicle id="100" depart="210.00">
        <route edges="gneE3 gneE4"/>
    </vehicle>
    <vehicle id="101" depart="212.10">
        <route edges="gneE3 gneE6"/>
    </vehicle>
    <vehicle id="102" depart="214.20">
        <route edges="gneE3 gneE6"/>
    </vehicle>
    <vehicle id="103" depart="216.30">
        <route edges="gneE3 gneE6"/>
    </vehicle>
    <vehicle id="105" depart="220.50">
        <route edges="gneE3 -gneE2"/>
    </vehicle>
    <vehicle id="106" depart="222.60">
        <route edges="-gneE6 -gneE3"/>
    </vehicle>
    <vehicle id="107" depart="224.70">
        <route edges="gneE3 gneE6"/>
    </vehicle>
    <vehicle id="108" depart="226.80">
        <route edges="gneE2 gneE4"/>
    </vehicle>
    <vehicle id="109" depart="228.90">
        <route edges="-gneE4 gneE6"/>
    </vehicle>
    <vehicle id="110" depart="231.00">
        <route edges="gneE3 gneE4"/>
    </vehicle>
    <vehicle id="111" depart="233.10">
        <route edges="gneE3 -gneE2"/>
    </vehicle>
    <vehicle id="112" depart="235.20">
        <route edges="gneE3 gneE4"/>
    </vehicle>
    <vehicle id="113" depart="237.30">
        <route edges="-gneE6 gneE4"/>
    </vehicle>
    <vehicle id="114" depart="239.40">
        <route edges="-gneE4 -gneE2"/>
    </vehicle>
    <vehicle id="115" depart="241.50">
        <route edges="-gneE4 gneE6"/>
    </vehicle>
    <vehicle id="116" depart="243.60">
        <route edges="gneE3 gneE6"/>
    </vehicle>
    <vehicle id="118" depart="247.80">
        <route edges="-gneE4 -gneE2"/>
    </vehicle>
    <vehicle id="119" depart="249.90">
        <route edges="gneE3 -gneE2"/>
    </vehicle>
    <vehicle id="120" depart="252.00">
        <route edges="gneE2 -gneE3"/>
    </vehicle>
    <vehicle id="121" depart="254.10">
        <route edges="gneE2 gneE4"/>
    </vehicle>
    <vehicle id="122" depart="256.20">
        <route edges="gneE2 -gneE3"/>
    </vehicle>
    <vehicle id="123" depart="258.30">
        <route edges="-gneE4 gneE6"/>
    </vehicle>
    <vehicle id="125" depart="262.50">
        <route edges="gneE3 -gneE2"/>
    </vehicle>
    <vehicle id="126" depart="264.60">
        <route edges="-gneE4 -gneE2"/>
    </vehicle>
    <vehicle id="127" depart="266.70">
        <route edges="-gneE4 -gneE2"/>
    </vehicle>
    <vehicle id="128" depart="268.80">
        <route edges="-gneE6 -gneE3"/>
    </vehicle>
    <vehicle id="129" depart="270.90">
        <route edges="-gneE4 -gneE2"/>
    </vehicle>
    <vehicle id="131" depart="275.10">
        <route edges="gneE2 -gneE3"/>
    </vehicle>
    <vehicle id="132" depart="277.20">
        <route edges="-gneE4 gneE6"/>
    </vehicle>
    <vehicle id="134" depart="281.40">
        <route edges="gneE2 gneE6"/>
    </vehicle>
    <vehicle id="135" depart="283.50">
        <route edges="-gneE4 -gneE3"/>
    </vehicle>
    <vehicle id="136" depart="285.60">
        <route edges="-gneE6 -gneE2"/>
    </vehicle>
    <vehicle id="137" depart="287.70">
        <route edges="-gneE6 -gneE3"/>
    </vehicle>
    <vehicle id="138" depart="289.80">
        <route edges="gneE2 gneE4"/>
    </vehicle>
    <vehicle id="139" depart="291.90">
        <route edges="-gneE4 -gneE2"/>
    </vehicle>
    <vehicle id="140" depart="294.00">
        <route edges="gneE2 -gneE3"/>
    </vehicle>
    <vehicle id="141" depart="296.10">
        <route edges="gneE2 -gneE3"/>
    </vehicle>
    <vehicle id="142" depart="298.20">
        <route edges="-gneE4 -gneE3"/>
    </vehicle>
    <vehicle id="143" depart="300.30">
        <route edges="-gneE6 -gneE2"/>
    </vehicle>
    <vehicle id="144" depart="302.40">
        <route edges="-gneE6 gneE4"/>
    </vehicle>
    <vehicle id="145" depart="304.50">
        <route edges="-gneE6 -gneE2"/>
    </vehicle>
    <vehicle id="146" depart="306.60">
        <route edges="gneE3 gneE4"/>
    </vehicle>
    <vehicle id="147" depart="308.70">
        <route edges="-gneE4 -gneE2"/>
    </vehicle>
    <vehicle id="148" depart="310.80">
        <route edges="gneE2 gneE6"/>
    </vehicle>
    <vehicle id="149" depart="312.90">
        <route edges="-gneE4 -gneE2"/>
    </vehicle>
    <vehicle id="151" depart="317.10">
        <route edges="-gneE6 -gneE3"/>
    </vehicle>
    <vehicle id="152" depart="319.20">
        <route edges="gneE3 gneE4"/>
    </vehicle>
    <vehicle id="153" depart="321.30">
        <route edges="-gneE4 gneE6"/>
    </vehicle>
    <vehicle id="154" depart="323.40">
        <route edges="-gneE6 -gneE3"/>
    </vehicle>
    <vehicle id="155" depart="325.50">
        <route edges="-gneE6 gneE4"/>
    </vehicle>
    <vehicle id="156" depart="327.60">
        <route edges="-gneE6 -gneE3"/>
    </vehicle>
    <vehicle id="158" depart="331.80">
        <route edges="gneE2 -gneE3"/>
    </vehicle>
    <vehicle id="159" depart="333.90">
        <route edges="gneE3 gneE4"/>
    </vehicle>
    <vehicle id="162" depart="340.20">
        <route edges="gneE3 gneE4"/>
    </vehicle>
    <vehicle id="163" depart="342.30">
        <route edges="-gneE4 gneE6"/>
    </vehicle>
    <vehicle id="165" depart="346.50">
        <route edges="-gneE4 -gneE3"/>
    </vehicle>
    <vehicle id="166" depart="348.60">
        <route edges="gneE3 gneE6"/>
    </vehicle>
    <vehicle id="167" depart="350.70">
        <route edges="-gneE6 -gneE3"/>
    </vehicle>
    <vehicle id="169" depart="354.90">
        <route edges="-gneE4 -gneE3"/>
    </vehicle>
    <vehicle id="170" depart="357.00">
        <route edges="gneE2 gneE4"/>
    </vehicle>
    <vehicle id="171" depart="359.10">
        <route edges="gneE3 gneE6"/>
    </vehicle>
    <vehicle id="172" depart="361.20">
        <route edges="-gneE4 gneE6"/>
    </vehicle>
    <vehicle id="173" depart="363.30">
        <route edges="-gneE6 -gneE2"/>
    </vehicle>
    <vehicle id="174" depart="365.40">
        <route edges="-gneE4 -gneE2"/>
    </vehicle>
    <vehicle id="175" depart="367.50">
        <route edges="gneE2 gneE6"/>
    </vehicle>
    <vehicle id="176" depart="369.60">
        <route edges="gneE2 gneE6"/>
    </vehicle>
    <vehicle id="177" depart="371.70">
        <route edges="-gneE6 -gneE3"/>
    </vehicle>
    <vehicle id="178" depart="373.80">
        <route edges="gneE3 -gneE2"/>
    </vehicle>
    <vehicle id="179" depart="375.90">
        <route edges="gneE3 gneE4"/>
    </vehicle>
    <vehicle id="180" depart="378.00">
        <route edges="gneE2 gneE4"/>
    </vehicle>
    <vehicle id="182" depart="382.20">
        <route edges="gneE2 gneE4"/>
    </vehicle>
    <vehicle id="183" depart="384.30">
        <route edges="-gneE4 -gneE3"/>
    </vehicle>
    <vehicle id="185" depart="388.50">
        <route edges="-gneE4 gneE6"/>
    </vehicle>
    <vehicle id="187" depart="392.70">
        <route edges="-gneE4 gneE6"/>
    </vehicle>
    <vehicle id="188" depart="394.80">
        <route edges="gneE3 gneE6"/>
    </vehicle>
    <vehicle id="190" depart="399.00">
        <route edges="gneE3 gneE4"/>
    </vehicle>
    <vehicle id="191" depart="401.10">
        <route edges="-gneE6 gneE4"/>
    </vehicle>
    <vehicle id="192" depart="403.20">
        <route edges="gneE2 gneE6"/>
    </vehicle>
    <vehicle id="193" depart="405.30">
        <route edges="-gneE6 gneE4"/>
    </vehicle>
    <vehicle id="194" depart="407.40">
        <route edges="-gneE4 -gneE3"/>
    </vehicle>
    <vehicle id="195" depart="409.50">
        <route edges="-gneE6 gneE4"/>
    </vehicle>
    <vehicle id="196" depart="411.60">
        <route edges="gneE2 gneE4"/>
    </vehicle>
    <vehicle id="198" depart="415.80">
        <route edges="-gneE4 -gneE2"/>
    </vehicle>
    <vehicle id="201" depart="422.10">
        <route edges="-gneE4 -gneE3"/>
    </vehicle>
    <vehicle id="202" depart="424.20">
        <route edges="gneE2 -gneE3"/>
    </vehicle>
    <vehicle id="203" depart="426.30">
        <route edges="-gneE6 -gneE3"/>
    </vehicle>
    <vehicle id="204" depart="428.40">
        <route edges="gneE2 gneE4"/>
    </vehicle>
    <vehicle id="206" depart="432.60">
        <route edges="-gneE4 -gneE3"/>
    </vehicle>
    <vehicle id="208" depart="436.80">
        <route edges="-gneE6 -gneE3"/>
    </vehicle>
    <vehicle id="209" depart="438.90">
        <route edges="gneE3 gneE4"/>
    </vehicle>
    <vehicle id="210" depart="441.00">
        <route edges="-gneE6 -gneE2"/>
    </vehicle>
    <vehicle id="211" depart="443.10">
        <route edges="gneE3 gneE4"/>
    </vehicle>
    <vehicle id="212" depart="445.20">
        <route edges="-gneE6 -gneE2"/>
    </vehicle>
    <vehicle id="213" depart="447.30">
        <route edges="-gneE4 -gneE2"/>
    </vehicle>
    <vehicle id="218" depart="457.80">
        <route edges="-gneE4 -gneE2"/>
    </vehicle>
    <vehicle id="219" depart="459.90">
        <route edges="-gneE4 -gneE3"/>
    </vehicle>
    <vehicle id="222" depart="466.20">
        <route edges="gneE2 -gneE3"/>
    </vehicle>
    <vehicle id="224" depart="470.40">
        <route edges="gneE3 gneE6"/>
    </vehicle>
    <vehicle id="225" depart="472.50">
        <route edges="gneE2 gneE4"/>
    </vehicle>
    <vehicle id="226" depart="474.60">
        <route edges="gneE2 gneE4"/>
    </vehicle>
    <vehicle id="227" depart="476.70">
        <route edges="-gneE4 gneE6"/>
    </vehicle>
    <vehicle id="228" depart="478.80">
        <route edges="-gneE6 -gneE2"/>
    </vehicle>
    <vehicle id="230" depart="483.00">
        <route edges="gneE3 gneE6"/>
    </vehicle>
    <vehicle id="231" depart="485.10">
        <route edges="-gneE6 -gneE2"/>
    </vehicle>
    <vehicle id="232" depart="487.20">
        <route edges="-gneE4 gneE6"/>
    </vehicle>
    <vehicle id="233" depart="489.30">
        <route edges="-gneE4 -gneE3"/>
    </vehicle>
    <vehicle id="235" depart="493.50">
        <route edges="-gneE4 gneE6"/>
    </vehicle>
    <vehicle id="236" depart="495.60">
        <route edges="-gneE6 -gneE2"/>
    </vehicle>
    <vehicle id="237" depart="497.70">
        <route edges="-gneE6 gneE4"/>
    </vehicle>
    <vehicle id="238" depart="499.80">
        <route edges="-gneE4 -gneE3"/>
    </vehicle>
    <vehicle id="239" depart="501.90">
        <route edges="gneE3 -gneE2"/>
    </vehicle>
    <vehicle id="240" depart="504.00">
        <route edges="-gneE6 gneE4"/>
    </vehicle>
    <vehicle id="241" depart="506.10">
        <route edges="-gneE6 -gneE2"/>
    </vehicle>
    <vehicle id="242" depart="508.20">
        <route edges="-gneE4 -gneE3"/>
    </vehicle>
    <vehicle id="243" depart="510.30">
        <route edges="-gneE4 -gneE3"/>
    </vehicle>
    <vehicle id="244" depart="512.40">
        <route edges="-gneE6 -gneE2"/>
    </vehicle>
    <vehicle id="246" depart="516.60">
        <route edges="-gneE4 gneE6"/>
    </vehicle>
    <vehicle id="248" depart="520.80">
        <route edges="-gneE4 -gneE3"/>
    </vehicle>
    <vehicle id="250" depart="525.00">
        <route edges="-gneE4 gneE6"/>
    </vehicle>
    <vehicle id="251" depart="527.10">
        <route edges="-gneE4 -gneE3"/>
    </vehicle>
    <vehicle id="252" depart="529.20">
        <route edges="gneE3 -gneE2"/>
    </vehicle>
    <vehicle id="253" depart="531.30">
        <route edges="-gneE6 -gneE2"/>
    </vehicle>
    <vehicle id="254" depart="533.40">
        <route edges="-gneE4 gneE6"/>
    </vehicle>
    <vehicle id="255" depart="535.50">
        <route edges="gneE2 gneE6"/>
    </vehicle>
    <vehicle id="257" depart="539.70">
        <route edges="gneE3 gneE6"/>
    </vehicle>
    <vehicle id="258" depart="541.80">
        <route edges="-gneE6 gneE4"/>
    </vehicle>
    <vehicle id="259" depart="543.90">
        <route edges="-gneE4 -gneE3"/>
    </vehicle>
    <vehicle id="260" depart="546.00">
        <route edges="-gneE6 -gneE3"/>
    </vehicle>
    <vehicle id="262" depart="550.20">
        <route edges="-gneE6 -gneE2"/>
    </vehicle>
    <vehicle id="263" depart="552.30">
        <route edges="gneE3 -gneE2"/>
    </vehicle>
    <vehicle id="264" depart="554.40">
        <route edges="-gneE6 -gneE3"/>
    </vehicle>
    <vehicle id="265" depart="556.50">
        <route edges="-gneE4 -gneE3"/>
    </vehicle>
    <vehicle id="266" depart="558.60">
        <route edges="-gneE4 -gneE2"/>
    </vehicle>
    <vehicle id="267" depart="560.70">
        <route edges="gneE3 -gneE2"/>
    </vehicle>
    <vehicle id="270" depart="567.00">
        <route edges="-gneE4 gneE6"/>
    </vehicle>
    <vehicle id="271" depart="569.10">
        <route edges="-gneE6 gneE4"/>
    </vehicle>
    <vehicle id="272" depart="571.20">
        <route edges="-gneE6 -gneE3"/>
    </vehicle>
    <vehicle id="273" depart="573.30">
        <route edges="gneE3 gneE6"/>
    </vehicle>
    <vehicle id="274" depart="575.40">
        <route edges="gneE3 gneE4"/>
    </vehicle>
    <vehicle id="275" depart="577.50">
        <route edges="-gneE6 gneE4"/>
    </vehicle>
    <vehicle id="276" depart="579.60">
        <route edges="-gneE4 -gneE3"/>
    </vehicle>
    <vehicle id="277" depart="581.70">
        <route edges="gneE2 gneE6"/>
    </vehicle>
    <vehicle id="278" depart="583.80">
        <route edges="-gneE4 -gneE2"/>
    </vehicle>
    <vehicle id="279" depart="585.90">
        <route edges="gneE3 gneE6"/>
    </vehicle>
    <vehicle id="280" depart="588.00">
        <route edges="-gneE6 gneE4"/>
    </vehicle>
    <vehicle id="283" depart="594.30">
        <route edges="-gneE6 -gneE3"/>
    </vehicle>
    <vehicle id="286" depart="600.60">
        <route edges="-gneE6 -gneE2"/>
    </vehicle>
    <vehicle id="287" depart="602.70">
        <route edges="gneE2 -gneE3"/>
    </vehicle>
    <vehicle id="288" depart="604.80">
        <route edges="gneE3 gneE6"/>
    </vehicle>
    <vehicle id="289" depart="606.90">
        <route edges="-gneE4 -gneE3"/>
    </vehicle>
    <vehicle id="290" depart="609.00">
        <route edges="-gneE6 -gneE2"/>
    </vehicle>
    <vehicle id="291" depart="611.10">
        <route edges="-gneE6 -gneE2"/>
    </vehicle>
    <vehicle id="294" depart="617.40">
        <route edges="-gneE6 gneE4"/>
    </vehicle>
    <vehicle id="296" depart="621.60">
        <route edges="-gneE4 -gneE2"/>
    </vehicle>
    <vehicle id="297" depart="623.70">
        <route edges="gneE2 gneE4"/>
    </vehicle>
    <vehicle id="301" depart="632.10">
        <route edges="-gneE4 -gneE2"/>
    </vehicle>
    <vehicle id="302" depart="634.20">
        <route edges="-gneE6 gneE4"/>
    </vehicle>
    <vehicle id="303" depart="636.30">
        <route edges="-gneE6 -gneE3"/>
    </vehicle>
    <vehicle id="304" depart="638.40">
        <route edges="-gneE4 gneE6"/>
    </vehicle>
    <vehicle id="305" depart="640.50">
        <route edges="gneE3 gneE4"/>
    </vehicle>
    <vehicle id="306" depart="642.60">
        <route edges="-gneE6 -gneE3"/>
    </vehicle>
    <vehicle id="308" depart="646.80">
        <route edges="-gneE6 gneE4"/>
    </vehicle>
    <vehicle id="309" depart="648.90">
        <route edges="gneE3 gneE4"/>
    </vehicle>
    <vehicle id="311" depart="653.10">
        <route edges="-gneE4 gneE6"/>
    </vehicle>
    <vehicle id="313" depart="657.30">
        <route edges="gneE2 gneE6"/>
    </vehicle>
    <vehicle id="314" depart="659.40">
        <route edges="gneE2 gneE6"/>
    </vehicle>
    <vehicle id="316" depart="663.60">
        <route edges="gneE2 gneE6"/>
    </vehicle>
    <vehicle id="319" depart="669.90">
        <route edges="-gneE4 -gneE2"/>
    </vehicle>
    <vehicle id="320" depart="672.00">
        <route edges="-gneE4 gneE6"/>
    </vehicle>
    <vehicle id="321" depart="674.10">
        <route edges="gneE2 -gneE3"/>
    </vehicle>
    <vehicle id="323" depart="678.30">
        <route edges="gneE3 gneE4"/>
    </vehicle>
    <vehicle id="324" depart="680.40">
        <route edges="gneE3 gneE6"/>
    </vehicle>
    <vehicle id="325" depart="682.50">
        <route edges="-gneE4 gneE6"/>
    </vehicle>
    <vehicle id="326" depart="684.60">
        <route edges="-gneE6 -gneE3"/>
    </vehicle>
    <vehicle id="327" depart="686.70">
        <route edges="gneE2 gneE6"/>
    </vehicle>
    <vehicle id="329" depart="690.90">
        <route edges="-gneE6 -gneE2"/>
    </vehicle>
    <vehicle id="330" depart="693.00">
        <route edges="gneE3 gneE6"/>
    </vehicle>
    <vehicle id="331" depart="695.10">
        <route edges="-gneE4 -gneE3"/>
    </vehicle>
    <vehicle id="332" depart="697.20">
        <route edges="-gneE6 gneE4"/>
    </vehicle>
    <vehicle id="333" depart="699.30">
        <route edges="gneE3 gneE4"/>
    </vehicle>
    <vehicle id="334" depart="701.40">
        <route edges="-gneE6 -gneE2"/>
    </vehicle>
    <vehicle id="335" depart="703.50">
        <route edges="gneE2 gneE6"/>
    </vehicle>
    <vehicle id="336" depart="705.60">
        <route edges="gneE2 gneE4"/>
    </vehicle>
    <vehicle id="337" depart="707.70">
        <route edges="gneE2 -gneE3"/>
    </vehicle>
    <vehicle id="339" depart="711.90">
        <route edges="-gneE6 -gneE2"/>
    </vehicle>
    <vehicle id="340" depart="714.00">
        <route edges="gneE2 -gneE3"/>
    </vehicle>
    <vehicle id="341" depart="716.10">
        <route edges="-gneE6 gneE4"/>
    </vehicle>
    <vehicle id="343" depart="720.30">
        <route edges="gneE3 gneE6"/>
    </vehicle>
    <vehicle id="344" depart="722.40">
        <route edges="gneE3 gneE6"/>
    </vehicle>
    <vehicle id="345" depart="724.50">
        <route edges="-gneE6 -gneE2"/>
    </vehicle>
    <vehicle id="346" depart="726.60">
        <route edges="-gneE6 -gneE2"/>
    </vehicle>
    <vehicle id="348" depart="730.80">
        <route edges="-gneE6 gneE4"/>
    </vehicle>
    <vehicle id="349" depart="732.90">
        <route edges="-gneE4 -gneE2"/>
    </vehicle>
    <vehicle id="350" depart="735.00">
        <route edges="gneE2 gneE4"/>
    </vehicle>
    <vehicle id="353" depart="741.30">
        <route edges="-gneE4 -gneE2"/>
    </vehicle>
    <vehicle id="354" depart="743.40">
        <route edges="gneE2 gneE4"/>
    </vehicle>
    <vehicle id="355" depart="745.50">
        <route edges="-gneE4 gneE6"/>
    </vehicle>
    <vehicle id="356" depart="747.60">
        <route edges="-gneE6 -gneE3"/>
    </vehicle>
    <vehicle id="357" depart="749.70">
        <route edges="-gneE6 gneE4"/>
    </vehicle>
    <vehicle id="359" depart="753.90">
        <route edges="-gneE4 -gneE3"/>
    </vehicle>
    <vehicle id="360" depart="756.00">
        <route edges="-gneE6 -gneE3"/>
    </vehicle>
    <vehicle id="361" depart="758.10">
        <route edges="gneE2 gneE4"/>
    </vehicle>
    <vehicle id="363" depart="762.30">
        <route edges="-gneE6 -gneE3"/>
    </vehicle>
    <vehicle id="364" depart="764.40">
        <route edges="gneE3 gneE6"/>
    </vehicle>
    <vehicle id="365" depart="766.50">
        <route edges="gneE2 gneE4"/>
    </vehicle>
    <vehicle id="366" depart="768.60">
        <route edges="-gneE4 -gneE2"/>
    </vehicle>
    <vehicle id="367" depart="770.70">
        <route edges="gneE3 gneE4"/>
    </vehicle>
    <vehicle id="368" depart="772.80">
        <route edges="-gneE4 -gneE3"/>
    </vehicle>
    <vehicle id="369" depart="774.90">
        <route edges="-gneE6 gneE4"/>
    </vehicle>
    <vehicle id="370" depart="777.00">
        <route edges="-gneE6 -gneE2"/>
    </vehicle>
    <vehicle id="372" depart="781.20">
        <route edges="gneE2 gneE4"/>
    </vehicle>
    <vehicle id="373" depart="783.30">
        <route edges="gneE3 -gneE2"/>
    </vehicle>
    <vehicle id="374" depart="785.40">
        <route edges="-gneE4 gneE6"/>
    </vehicle>
    <vehicle id="375" depart="787.50">
        <route edges="-gneE4 -gneE3"/>
    </vehicle>
    <vehicle id="376" depart="789.60">
        <route edges="-gneE6 -gneE2"/>
    </vehicle>
    <vehicle id="378" depart="793.80">
        <route edges="gneE2 gneE6"/>
    </vehicle>
    <vehicle id="379" depart="795.90">
        <route edges="gneE3 gneE4"/>
    </vehicle>
    <vehicle id="381" depart="800.10">
        <route edges="-gneE4 gneE6"/>
    </vehicle>
    <vehicle id="382" depart="802.20">
        <route edges="gneE2 gneE6"/>
    </vehicle>
    <vehicle id="383" depart="804.30">
        <route edges="gneE3 gneE6"/>
    </vehicle>
    <vehicle id="384" depart="806.40">
        <route edges="gneE2 gneE4"/>
    </vehicle>
    <vehicle id="385" depart="808.50">
        <route edges="-gneE6 -gneE3"/>
    </vehicle>
    <vehicle id="386" depart="810.60">
        <route edges="gneE2 gneE4"/>
    </vehicle>
    <vehicle id="387" depart="812.70">
        <route edges="-gneE6 -gneE2"/>
    </vehicle>
    <vehicle id="388" depart="814.80">
        <route edges="gneE2 gneE6"/>
    </vehicle>
    <vehicle id="389" depart="816.90">
        <route edges="-gneE4 -gneE2"/>
    </vehicle>
    <vehicle id="390" depart="819.00">
        <route edges="-gneE4 gneE6"/>
    </vehicle>
    <vehicle id="392" depart="823.20">
        <route edges="-gneE4 -gneE3"/>
    </vehicle>
    <vehicle id="393" depart="825.30">
        <route edges="gneE2 -gneE3"/>
    </vehicle>
    <vehicle id="394" depart="827.40">
        <route edges="-gneE4 -gneE3"/>
    </vehicle>
    <vehicle id="395" depart="829.50">
        <route edges="-gneE6 -gneE2"/>
    </vehicle>
    <vehicle id="397" depart="833.70">
        <route edges="-gneE4 -gneE3"/>
    </vehicle>
    <vehicle id="398" depart="835.80">
        <route edges="-gneE4 -gneE3"/>
    </vehicle>
    <vehicle id="402" depart="844.20">
        <route edges="gneE2 -gneE3"/>
    </vehicle>
    <vehicle id="403" depart="846.30">
        <route edges="-gneE4 -gneE3"/>
    </vehicle>
    <vehicle id="404" depart="848.40">
        <route edges="gneE2 gneE4"/>
    </vehicle>
    <vehicle id="405" depart="850.50">
        <route edges="gneE2 -gneE3"/>
    </vehicle>
    <vehicle id="406" depart="852.60">
        <route edges="-gneE4 -gneE2"/>
    </vehicle>
    <vehicle id="407" depart="854.70">
        <route edges="-gneE4 -gneE3"/>
    </vehicle>
    <vehicle id="409" depart="858.90">
        <route edges="gneE3 -gneE2"/>
    </vehicle>
    <vehicle id="410" depart="861.00">
        <route edges="-gneE4 gneE6"/>
    </vehicle>
    <vehicle id="411" depart="863.10">
        <route edges="gneE2 gneE4"/>
    </vehicle>
    <vehicle id="413" depart="867.30">
        <route edges="-gneE6 gneE4"/>
    </vehicle>
    <vehicle id="417" depart="875.70">
        <route edges="gneE3 gneE4"/>
    </vehicle>
    <vehicle id="419" depart="879.90">
        <route edges="-gneE4 -gneE2"/>