<?xml version="1.0" encoding="UTF-8"?>

<!-- generated on Sun May  6 20:59:10 2018 by SUMO duarouter Version 0.30.0
<?xml version="1.0" encoding="UTF-8"?>

<configuration xmlns:xsi="http://www.w3.org/2001/XMLSchema-instance" xsi:noNamespaceSchemaLocation="http://sumo.dlr.de/xsd/duarouterConfiguration.xsd">

    <input>
        <net-file value="cross/cross.net.xml"/>
        <route-files value="trips.trips.xml"/>
    </input>

    <output>
        <output-file value="cross/route/cross-2.5-9.rou.xml"/>
    </output>

    <processing>
        <ignore-errors value="true"/>
    </processing>

    <time>
        <begin value="0.0"/>
        <end value="1000.0"/>
    </time>

    <report>
        <no-warnings value="true"/>
        <no-step-log value="true"/>
    </report>

</configuration>
-->

<routes xmlns:xsi="http://www.w3.org/2001/XMLSchema-instance" xsi:noNamespaceSchemaLocation="http://sumo.dlr.de/xsd/routes_file.xsd">
    <vehicle id="1" depart="2.50">
        <route edges="gneE3 gneE4"/>
    </vehicle>
    <vehicle id="2" depart="5.00">
        <route edges="-gneE4 -gneE2"/>
    </vehicle>
    <vehicle id="3" depart="7.50">
        <route edges="-gneE6 gneE4"/>
    </vehicle>
    <vehicle id="4" depart="10.00">
        <route edges="-gneE6 -gneE2"/>
    </vehicle>
    <vehicle id="5" depart="12.50">
        <route edges="gneE3 gneE4"/>
    </vehicle>
    <vehicle id="6" depart="15.00">
        <route edges="-gneE4 -gneE2"/>
    </vehicle>
    <vehicle id="7" depart="17.50">
        <route edges="gneE2 gneE6"/>
    </vehicle>
    <vehicle id="8" depart="20.00">
        <route edges="gneE2 gneE6"/>
    </vehicle>
    <vehicle id="9" depart="22.50">
        <route edges="-gneE6 gneE4"/>
    </vehicle>
    <vehicle id="11" depart="27.50">
        <route edges="-gneE4 -gneE3"/>
    </vehicle>
    <vehicle id="13" depart="32.50">
        <route edges="gneE3 gneE4"/>
    </vehicle>
    <vehicle id="14" depart="35.00">
        <route edges="-gneE6 -gneE3"/>
    </vehicle>
    <vehicle id="15" depart="37.50">
        <route edges="gneE3 gneE4"/>
    </vehicle>
    <vehicle id="17" depart="42.50">
        <route edges="gneE2 gneE6"/>
    </vehicle>
    <vehicle id="18" depart="45.00">
        <route edges="gneE3 gneE6"/>
    </vehicle>
    <vehicle id="19" depart="47.50">
        <route edges="-gneE6 gneE4"/>
    </vehicle>
    <vehicle id="21" depart="52.50">
        <route edges="-gneE4 -gneE3"/>
    </vehicle>
    <vehicle id="22" depart="55.00">
        <route edges="gneE3 -gneE2"/>
    </vehicle>
    <vehicle id="23" depart="57.50">
        <route edges="gneE3 -gneE2"/>
    </vehicle>
    <vehicle id="24" depart="60.00">
        <route edges="-gneE6 -gneE2"/>
    </vehicle>
    <vehicle id="25" depart="62.50">
        <route edges="-gneE4 gneE6"/>
    </vehicle>
    <vehicle id="26" depart="65.00">
        <route edges="-gneE4 gneE6"/>
    </vehicle>
    <vehicle id="27" depart="67.50">
        <route edges="gneE3 gneE4"/>
    </vehicle>
    <vehicle id="28" depart="70.00">
        <route edges="gneE3 gneE4"/>
    </vehicle>
    <vehicle id="30" depart="75.00">
        <route edges="-gneE6 -gneE2"/>
    </vehicle>
    <vehicle id="31" depart="77.50">
        <route edges="-gneE6 -gneE3"/>
    </vehicle>
    <vehicle id="36" depart="90.00">
        <route edges="gneE2 gneE4"/>
    </vehicle>
    <vehicle id="37" depart="92.50">
        <route edges="-gneE6 -gneE3"/>
    </vehicle>
    <vehicle id="38" depart="95.00">
        <route edges="-gneE4 gneE6"/>
    </vehicle>
    <vehicle id="39" depart="97.50">
        <route edges="-gneE6 -gneE3"/>
    </vehicle>
    <vehicle id="40" depart="100.00">
        <route edges="gneE3 gneE6"/>
    </vehicle>
    <vehicle id="41" depart="102.50">
        <route edges="gneE2 gneE4"/>
    </vehicle>
    <vehicle id="42" depart="105.00">
        <route edges="gneE2 -gneE3"/>
    </vehicle>
    <vehicle id="44" depart="110.00">
        <route edges="gneE2 -gneE3"/>
    </vehicle>
    <vehicle id="45" depart="112.50">
        <route edges="gneE2 gneE4"/>
    </vehicle>
    <vehicle id="46" depart="115.00">
        <route edges="gneE2 gneE4"/>
    </vehicle>
    <vehicle id="47" depart="117.50">
        <route edges="-gneE4 -gneE3"/>
    </vehicle>
    <vehicle id="48" depart="120.00">
        <route edges="-gneE6 gneE4"/>
    </vehicle>
    <vehicle id="49" depart="122.50">
        <route edges="-gneE6 gneE4"/>
    </vehicle>
    <vehicle id="51" depart="127.50">
        <route edges="gneE2 -gneE3"/>
    </vehicle>
    <vehicle id="52" depart="130.00">
        <route edges="-gneE4 -gneE2"/>
    </vehicle>
    <vehicle id="53" depart="132.50">
        <route edges="gneE3 -gneE2"/>
    </vehicle>
    <vehicle id="54" depart="135.00">
        <route edges="-gneE6 gneE4"/>
    </vehicle>
    <vehicle id="55" depart="137.50">
        <route edges="-gneE6 gneE4"/>
    </vehicle>
    <vehicle id="57" depart="142.50">
        <route edges="gneE2 -gneE3"/>
    </vehicle>
    <vehicle id="58" depart="145.00">
        <route edges="-gneE4 gneE6"/>
    </vehicle>
    <vehicle id="61" depart="152.50">
        <route edges="-gneE6 -gneE3"/>
    </vehicle>
    <vehicle id="62" depart="155.00">
        <route edges="-gneE6 -gneE2"/>
    </vehicle>
    <vehicle id="64" depart="160.00">
        <route edges="-gneE6 -gneE3"/>
    </vehicle>
    <vehicle id="65" depart="162.50">
        <route edges="-gneE6 -gneE3"/>
    </vehicle>
    <vehicle id="66" depart="165.00">
        <route edges="-gneE4 gneE6"/>
    </vehicle>
    <vehicle id="67" depart="167.50">
        <route edges="-gneE6 gneE4"/>
    </vehicle>
    <vehicle id="68" depart="170.00">
        <route edges="-gneE6 -gneE2"/>
    </vehicle>
    <vehicle id="69" depart="172.50">
        <route edges="gneE2 gneE4"/>
    </vehicle>
    <vehicle id="71" depart="177.50">
        <route edges="-gneE4 -gneE2"/>
    </vehicle>
    <vehicle id="72" depart="180.00">
        <route edges="gneE2 gneE6"/>
    </vehicle>
    <vehicle id="73" depart="182.50">
        <route edges="gneE3 -gneE2"/>
    </vehicle>
    <vehicle id="74" depart="185.00">
        <route edges="-gneE4 -gneE2"/>
    </vehicle>
    <vehicle id="75" depart="187.50">
        <route edges="gneE2 gneE6"/>
    </vehicle>
    <vehicle id="78" depart="195.00">
        <route edges="-gneE6 -gneE2"/>
    </vehicle>
    <vehicle id="79" depart="197.50">
        <route edges="gneE2 gneE4"/>
    </vehicle>
    <vehicle id="80" depart="200.00">
        <route edges="-gneE6 -gneE3"/>
    </vehicle>
    <vehicle id="81" depart="202.50">
        <route edges="gneE3 gneE6"/>
    </vehicle>
    <vehicle id="82" depart="205.00">
        <route edges="-gneE6 gneE4"/>
    </vehicle>
    <vehicle id="83" depart="207.50">
        <route edges="-gneE6 -gneE3"/>
    </vehicle>
    <vehicle id="84" depart="210.00">
        <route edges="gneE2 -gneE3"/>
    </vehicle>
    <vehicle id="85" depart="212.50">
        <route edges="-gneE4 -gneE3"/>
    </vehicle>
    <vehicle id="86" depart="215.00">
        <route edges="gneE2 gneE6"/>
    </vehicle>
    <vehicle id="87" depart="217.50">
        <route edges="-gneE6 gneE4"/>
    </vehicle>
    <vehicle id="88" depart="220.00">
        <route edges="-gneE6 -gneE3"/>
    </vehicle>
    <vehicle id="90" depart="225.00">
        <route edges="-gneE6 -gneE3"/>
    </vehicle>
    <vehicle id="91" depart="227.50">
        <route edges="gneE3 gneE6"/>
    </vehicle>
    <vehicle id="92" depart="230.00">
        <route edges="gneE2 gneE4"/>
    </vehicle>
    <vehicle id="94" depart="235.00">
        <route edges="-gneE4 gneE6"/>
    </vehicle>
    <vehicle id="95" depart="237.50">
        <route edges="gneE2 gneE4"/>
    </vehicle>
    <vehicle id="96" depart="240.00">
        <route edges="-gneE4 -gneE2"/>
    </vehicle>
    <vehicle id="97" depart="242.50">
        <route edges="gneE2 -gneE3"/>
    </vehicle>
    <vehicle id="98" depart="245.00">
        <route edges="-gneE4 -gneE3"/>
    </vehicle>
    <vehicle id="101" depart="252.50">
        <route edges="gneE2 -gneE3"/>
    </vehicle>
    <vehicle id="102" depart="255.00">
        <route edges="gneE3 gneE6"/>
    </vehicle>
    <vehicle id="103" depart="257.50">
        <route edges="-gneE6 -gneE3"/>
    </vehicle>
    <vehicle id="104" depart="260.00">
        <route edges="-gneE6 gneE4"/>
    </vehicle>
    <vehicle id="106" depart="265.00">
        <route edges="-gneE6 -gneE3"/>
    </vehicle>
    <vehicle id="109" depart="272.50">
        <route edges="gneE2 -gneE3"/>
    </vehicle>
    <vehicle id="110" depart="275.00">
        <route edges="gneE2 gneE4"/>
    </vehicle>
    <vehicle id="111" depart="277.50">
        <route edges="-gneE4 -gneE2"/>
    </vehicle>
    <vehicle id="112" depart="280.00">
        <route edges="-gneE4 -gneE3"/>
    </vehicle>
    <vehicle id="113" depart="282.50">
        <route edges="-gneE6 gneE4"/>
    </vehicle>
    <vehicle id="114" depart="285.00">
        <route edges="-gneE4 -gneE3"/>
    </vehicle>
    <vehicle id="115" depart="287.50">
        <route edges="-gneE4 -gneE2"/>
    </vehicle>
    <vehicle id="116" depart="290.00">
        <route edges="gneE2 gneE4"/>
    </vehicle>
    <vehicle id="117" depart="292.50">
        <route edges="gneE2 gneE4"/>
    </vehicle>
    <vehicle id="119" depart="297.50">
        <route edges="gneE2 gneE4"/>
    </vehicle>
    <vehicle id="120" depart="300.00">
        <route edges="-gneE4 -gneE3"/>
    </vehicle>
    <vehicle id="121" depart="302.50">
        <route edges="-gneE4 gneE6"/>
    </vehicle>
    <vehicle id="122" depart="305.00">
        <route edges="gneE2 gneE6"/>
    </vehicle>
    <vehicle id="123" depart="307.50">
        <route edges="-gneE6 -gneE2"/>
    </vehicle>
    <vehicle id="124" depart="310.00">
        <route edges="gneE2 gneE6"/>
    </vehicle>
    <vehicle id="125" depart="312.50">
        <route edges="-gneE6 -gneE3"/>
    </vehicle>
    <vehicle id="126" depart="315.00">
        <route edges="-gneE6 gneE4"/>
    </vehicle>
    <vehicle id="128" depart="320.00">
        <route edges="-gneE4 -gneE3"/>
    </vehicle>
    <vehicle id="129" depart="322.50">
        <route edges="-gneE6 -gneE3"/>
    </vehicle>
    <vehicle id="131" depart="327.50">
        <route edges="-gneE6 -gneE3"/>
    </vehicle>
    <vehicle id="132" depart="330.00">
        <route edges="gneE2 gneE6"/>
    </vehicle>
    <vehicle id="134" depart="335.00">
        <route edges="-gneE6 gneE4"/>
    </vehicle>
    <vehicle id="135" depart="337.50">
        <route edges="gneE3 gneE6"/>
    </vehicle>
    <vehicle id="136" depart="340.00">
        <route edges="-gneE6 gneE4"/>
    </vehicle>
    <vehicle id="137" depart="342.50">
        <route edges="-gneE4 -gneE2"/>
    </vehicle>
    <vehicle id="138" depart="345.00">
        <route edges="-gneE4 gneE6"/>
    </vehicle>
    <vehicle id="139" depart="347.50">
        <route edges="-gneE6 -gneE3"/>
    </vehicle>
    <vehicle id="140" depart="350.00">
        <route edges="-gneE6 gneE4"/>
    </vehicle>
    <vehicle id="141" depart="352.50">
        <route edges="-gneE6 -gneE2"/>
    </vehicle>
    <vehicle id="143" depart="357.50">
        <route edges="gneE2 gneE6"/>
    </vehicle>
    <vehicle id="145" depart="362.50">
        <route edges="gneE3 gneE4"/>
    </vehicle>
    <vehicle id="146" depart="365.00">
        <route edges="-gneE4 gneE6"/>
    </vehicle>
    <vehicle id="147" depart="367.50">
        <route edges="-gneE4 -gneE3"/>
    </vehicle>
    <vehicle id="148" depart="370.00">
        <route edges="-gneE4 -gneE2"/>
    </vehicle>
    <vehicle id="151" depart="377.50">
        <route edges="gneE3 -gneE2"/>
    </vehicle>
    <vehicle id="152" depart="380.00">
        <route edges="gneE2 -gneE3"/>
    </vehicle>
    <vehicle id="154" depart="385.00">
        <route edges="-gneE6 gneE4"/>
    </vehicle>
    <vehicle id="155" depart="387.50">
        <route edges="-gneE6 gneE4"/>
    </vehicle>
    <vehicle id="157" depart="392.50">
        <route edges="-gneE6 -gneE2"/>
    </vehicle>
    <vehicle id="158" depart="395.00">
        <route edges="gneE3 gneE4"/>
    </vehicle>
    <vehicle id="159" depart="397.50">
        <route edges="-gneE4 -gneE2"/>
    </vehicle>
    <vehicle id="160" depart="400.00">
        <route edges="gneE3 gneE4"/>
    </vehicle>
    <vehicle id="162" depart="405.00">
        <route edges="gneE3 gneE6"/>
    </vehicle>
    <vehicle id="163" depart="407.50">
        <route edges="gneE2 gneE4"/>
    </vehicle>
    <vehicle id="164" depart="410.00">
        <route edges="gneE3 gneE4"/>
    </vehicle>
    <vehicle id="165" depart="412.50">
        <route edges="-gneE6 -gneE3"/>
    </vehicle>
    <vehicle id="168" depart="420.00">
        <route edges="-gneE4 -gneE2"/>
    </vehicle>
    <vehicle id="169" depart="422.50">
        <route edges="-gneE4 gneE6"/>
    </vehicle>
    <vehicle id="170" depart="425.00">
        <route edges="-gneE4 gneE6"/>
    </vehicle>
    <vehicle id="171" depart="427.50">
        <route edges="-gneE6 gneE4"/>
    </vehicle>
    <vehicle id="172" depart="430.00">
        <route edges="-gneE4 gneE6"/>
    </vehicle>
    <vehicle id="173" depart="432.50">
        <route edges="-gneE4 -gneE3"/>
    </vehicle>
    <vehicle id="175" depart="437.50">
        <route edges="-gneE4 -gneE2"/>
    </vehicle>
    <vehicle id="176" depart="440.00">
        <route edges="gneE2 gneE4"/>
    </vehicle>
    <vehicle id="178" depart="445.00">
        <route edges="-gneE6 -gneE3"/>
    </vehicle>
    <vehicle id="180" depart="450.00">
        <route edges="gneE3 -gneE2"/>
    </vehicle>
    <vehicle id="181" depart="452.50">
        <route edges="gneE2 gneE6"/>
    </vehicle>
    <vehicle id="182" depart="455.00">
        <route edges="gneE3 -gneE2"/>
    </vehicle>
    <vehicle id="183" depart="457.50">
        <route edges="gneE3 gneE4"/>
    </vehicle>
    <vehicle id="185" depart="462.50">
        <route edges="gneE3 gneE6"/>
    </vehicle>
    <vehicle id="186" depart="465.00">
        <route edges="-gneE6 gneE4"/>
    </vehicle>
    <vehicle id="188" depart="470.00">
        <route edges="-gneE6 gneE4"/>
    </vehicle>
    <vehicle id="189" depart="472.50">
        <route edges="gneE2 gneE4"/>
    </vehicle>
    <vehicle id="190" depart="475.00">
        <route edges="gneE2 -gneE3"/>
    </vehicle>
    <vehicle id="192" depart="480.00">
        <route edges="-gneE6 -gneE2"/>
    </vehicle>
    <vehicle id="194" depart="485.00">
        <route edges="gneE2 gneE4"/>
    </vehicle>
    <vehicle id="195" depart="487.50">
        <route edges="-gneE6 -gneE2"/>
    </vehicle>
    <vehicle id="196" depart="490.00">
        <route edges="-gneE6 -gneE2"/>
    </vehicle>
    <vehicle id="197" depart="492.50">
        <route edges="-gneE6 gneE4"/>
    </vehicle>
    <vehicle id="198" depart="495.00">
        <route edges="-gneE4 gneE6"/>
    </vehicle>
    <vehicle id="199" depart="497.50">
        <route edges="-gneE6 gneE4"/>
    </vehicle>
    <vehicle id="200" depart="500.00">
        <route edges="-gneE4 -gneE2"/>
    </vehicle>
    <vehicle id="203" depart="507.50">
        <route edges="gneE3 -gneE2"/>
    </vehicle>
    <vehicle id="204" depart="510.00">
        <route edges="-gneE4 -gneE2"/>
    </vehicle>
    <vehicle id="205" depart="512.50">
        <route edges="gneE2 gneE6"/>
    </vehicle>
    <vehicle id="206" depart="515.00">
        <route edges="-gneE4 -gneE3"/>
    </vehicle>
    <vehicle id="207" depart="517.50">
        <route edges="gneE2 gneE4"/>
    </vehicle>
    <vehicle id="208" depart="520.00">
        <route edges="gneE2 gneE6"/>
    </vehicle>
    <vehicle id="210" depart="525.00">
        <route edges="gneE3 -gneE2"/>
    </vehicle>
    <vehicle id="211" depart="527.50">
        <route edges="-gneE6 -gneE3"/>
    </vehicle>
    <vehicle id="212" depart="530.00">
        <route edges="-gneE6 -gneE2"/>
    </vehicle>
    <vehicle id="213" depart="532.50">
        <route edges="gneE2 gneE6"/>
    </vehicle>
    <vehicle id="214" depart="535.00">
        <route edges="-gneE4 -gneE2"/>
    </vehicle>
    <vehicle id="215" depart="537.50">
        <route edges="-gneE4 -gneE2"/>
    </vehicle>
    <vehicle id="216" depart="540.00">
        <route edges="gneE3 gneE6"/>
    </vehicle>
    <vehicle id="217" depart="542.50">
        <route edges="-gneE4 -gneE3"/>
    </vehicle>
    <vehicle id="218" depart="545.00">
        <route edges="-gneE6 gneE4"/>
    </vehicle>
    <vehicle id="220" depart="550.00">
        <route edges="gneE2 gneE4"/>
    </vehicle>
    <vehicle id="222" depart="555.00">
        <route edges="gneE3 -gneE2"/>
    </vehicle>
    <vehicle id="223" depart="557.50">
        <route edges="-gneE4 gneE6"/>
    </vehicle>
    <vehicle id="224" depart="560.00">
        <route edges="-gneE4 gneE6"/>
    </vehicle>
    <vehicle id="227" depart="567.50">
        <route edges="gneE2 -gneE3"/>
    </vehicle>
    <vehicle id="230" depart="575.00">
        <route edges="gneE2 -gneE3"/>
    </vehicle>
    <vehicle id="232" depart="580.00">
        <route edges="-gneE4 gneE6"/>
    </vehicle>
    <vehicle id="234" depart="585.00">
        <route edges="gneE3 gneE6"/>
    </vehicle>
    <vehicle id="235" depart="587.50">
        <route edges="gneE2 gneE4"/>
    </vehicle>
    <vehicle id="236" depart="590.00">
        <route edges="-gneE4 -gneE3"/>
    </vehicle>
    <vehicle id="237" depart="592.50">
        <route edges="gneE2 -gneE3"/>
    </vehicle>
    <vehicle id="238" depart="595.00">
        <route edges="gneE3 gneE4"/>
    </vehicle>
    <vehicle id="239" depart="597.50">
        <route edges="-gneE6 -gneE2"/>
    </vehicle>
    <vehicle id="240" depart="600.00">
        <route edges="-gneE6 gneE4"/>
    </vehicle>
    <vehicle id="241" depart="602.50">
        <route edges="gneE2 gneE6"/>
    </vehicle>
    <vehicle id="242" depart="605.00">
        <route edges="gneE3 gneE6"/>
    </vehicle>
    <vehicle id="244" depart="610.00">
        <route edges="gneE3 gneE4"/>
    </vehicle>
    <vehicle id="246" depart="615.00">
        <route edges="-gneE6 -gneE2"/>
    </vehicle>
    <vehicle id="247" depart="617.50">
        <route edges="gneE2 -gneE3"/>
    </vehicle>
    <vehicle id="248" depart="620.00">
        <route edges="-gneE4 -gneE3"/>
    </vehicle>
    <vehicle id="252" depart="630.00">
        <route edges="gneE2 gneE6"/>
    </vehicle>
    <vehicle id="253" depart="632.50">
        <route edges="-gneE6 -gneE2"/>
    </vehicle>
    <vehicle id="254" depart="635.00">
        <route edges="gneE3 -gneE2"/>
    </vehicle>
    <vehicle id="255" depart="637.50">
        <route edges="-gneE6 gneE4"/>
    </vehicle>
    <vehicle id="256" depart="640.00">
        <route edges="gneE2 gneE4"/>
    </vehicle>
    <vehicle id="257" depart="642.50">
        <route edges="gneE3 -gneE2"/>
    </vehicle>
    <vehicle id="258" depart="645.00">
        <route edges="gneE2 -gneE3"/>
    </vehicle>
    <vehicle id="259" depart="647.50">
        <route edges="-gneE6 -gneE3"/>
    </vehicle>
    <vehicle id="260" depart="650.00">
        <route edges="gneE2 gneE4"/>
    </vehicle>
    <vehicle id="261" depart="652.50">
        <route edges="gneE2 gneE6"/>
    </vehicle>
    <vehicle id="262" depart="655.00">
        <route edges="gneE3 gneE4"/>
    </vehicle>
    <vehicle id="263" depart="657.50">
        <route edges="gneE2 -gneE3"/>
    </vehicle>
    <vehicle id="264" depart="660.00">
        <route edges="-gneE4 -gneE3"/>
    </vehicle>
    <vehicle id="265" depart="662.50">
        <route edges="-gneE6 gneE4"/>
    </vehicle>
    <vehicle id="266" depart="665.00">
        <route edges="gneE3 -gneE2"/>
    </vehicle>
    <vehicle id="269" depart="672.50">
        <route edges="gneE2 gneE6"/>
    </vehicle>
    <vehicle id="270" depart="675.00">
        <route edges="gneE2 gneE4"/>
    </vehicle>
    <vehicle id="271" depart="677.50">
        <route edges="gneE2 gneE4"/>
    </vehicle>
    <vehicle id="272" depart="680.00">
        <route edges="-gneE6 gneE4"/>
    </vehicle>
    <vehicle id="274" depart="685.00">
        <route edges="gneE3 -gneE2"/>
    </vehicle>
    <vehicle id="277" depart="692.50">
        <route edges="gneE2 -gneE3"/>
    </vehicle>
    <vehicle id="279" depart="697.50">
        <route edges="-gneE4 -gneE3"/>
    </vehicle>
    <vehicle id="282" depart="705.00">
        <route edges="-gneE4 -gneE2"/>
    </vehicle>
    <vehicle id="283" depart="707.50">
        <route edges="-gneE6 gneE4"/>
    </vehicle>
    <vehicle id="285" depart="712.50">
        <route edges="-gneE6 gneE4"/>
    </vehicle>
    <vehicle id="287" depart="717.50">
        <route edges="gneE2 gneE6"/>
    </vehicle>
    <vehicle id="289" depart="722.50">
        <route edges="gneE2 gneE6"/>
    </vehicle>
    <vehicle id="290" depart="725.00">
        <route edges="-gneE4 -gneE3"/>
    </vehicle>
    <vehicle id="291" depart="727.50">
        <route edges="-gneE4 -gneE3"/>
    </vehicle>
    <vehicle id="292" depart="730.00">
        <route edges="gneE2 -gneE3"/>
    </vehicle>
    <vehicle id="293" depart="732.50">
        <route edges="-gneE4 gneE6"/>
    </vehicle>
    <vehicle id="294" depart="735.00">
        <route edges="gneE2 gneE6"/>
    </vehicle>
    <vehicle id="295" depart="737.50">
        <route edges="-gneE4 -gneE3"/>
    </vehicle>
    <vehicle id="296" depart="740.00">
        <route edges="-gneE4 gneE6"/>
    </vehicle>
    <vehicle id="297" depart="742.50">
        <route edges="-gneE4 -gneE2"/>
    </vehicle>
    <vehicle id="299" depart="747.50">
        <route edges="-gneE6 gneE4"/>
    </vehicle>
    <vehicle id="300" depart="750.00">
        <route edges="-gneE6 -gneE3"/>
    </vehicle>
    <vehicle id="301" depart="752.50">
        <route edges="-gneE6 -gneE2"/>
    </vehicle>
    <vehicle id="302" depart="755.00">
        <route edges="gneE2 gneE6"/>
    </vehicle>
    <vehicle id="303" depart="757.50">
        <route edges="-gneE6 -gneE3"/>
    </vehicle>
    <vehicle id="304" depart="760.00">
        <route edges="gneE2 gneE6"/>
    </vehicle>
    <vehicle id="305" depart="762.50">
        <route edges="-gneE6 -gneE2"/>
    </vehicle>
    <vehicle id="306" depart="765.00">
        <route edges="-gneE6 -gneE2"/>
    </vehicle>
    <vehicle id="307" depart="767.50">
        <route edges="gneE3 gneE6"/>
    </vehicle>
    <vehicle id="309" depart="772.50">
        <route edges="gneE3 gneE6"/>
    </vehicle>
    <vehicle id="312" depart="780.00">
        <route edges="-gneE6 gneE4"/>
    </vehicle>
    <vehicle id="313" depart="782.50">
        <route edges="gneE2 gneE4"/>
    </vehicle>
    <vehicle id="314" depart="785.00">
        <route edges="gneE2 gneE6"/>
    </vehicle>
    <vehicle id="315" depart="787.50">
        <route edges="-gneE6 -gneE2"/>
    </vehicle>
    <vehicle id="316" depart="790.00">
        <route edges="-gneE4 -gneE3"/>
    </vehicle>
    <vehicle id="318" depart="795.00">
        <route edges="-gneE6 -gneE2"/>
    </vehicle>
    <vehicle id="321" depart="802.50">
        <route edges="gneE3 gneE6"/>
    </vehicle>
    <vehicle id="322" depart="805.00">
        <route edges="-gneE6 -gneE2"/>
    </vehicle>
    <vehicle id="324" depart="810.00">
        <route edges="-gneE4 -gneE2"/>
    </vehicle>
    <vehicle id="325" depart="812.50">
        <route edges="gneE3 gneE6"/>
    </vehicle>
    <vehicle id="326" depart="815.00">
        <route edges="gneE2 gneE6"/>
    </vehicle>
    <vehicle id="327" depart="817.50">
        <route edges="gneE2 gneE4"/>
    </vehicle>
    <vehicle id="329" depart="822.50">
        <route edges="gneE2 -gneE3"/>
    </vehicle>
    <vehicle id="330" depart="825.00">
        <route edges="-gneE4 gneE6"/>
    </vehicle>
    <vehicle id="331" depart="827.50">
        <route edges="gneE2 gneE6"/>
    </vehicle>
    <vehicle id="332" depart="830.00">
        <route edges="gneE3 gneE6"/>
    </vehicle>
    <vehicle id="334" depart="835.00">
        <route edges="-gneE4 gneE6"/>
    </vehicle>
    <vehicle id="336" depart="840.00">
        <route edges="gneE2 -gneE3"/>
    </vehicle>
    <vehicle id="338" depart="845.00">
        <route edges="gneE2 gneE6"/>
    </vehicle>
    <vehicle id="339" depart="847.50">
        <route edges="-gneE4 -gneE3"/>
    </vehicle>
    <vehicle id="341" depart="852.50">
        <route edges="gneE2 gneE4"/>
    </vehicle>
    <vehicle id="342" depart="855.00">
        <route edges="gneE2 -gneE3"/>
    </vehicle>
    <vehicle id="343" depart="857.50">
        <route edges="-gneE4 gneE6"/>
    </vehicle>
    <vehicle id="345" depart="862.50">
        <route edges="gneE3 -gneE2"/>
    </vehicle>
    <vehicle id="346" depart="865.00">
        <route edges="-gneE4 -gneE3"/>
    </vehicle>
    <vehicle id="348" depart="870.00">
        <route edges="gneE2 gneE6"/>
    </vehicle>
    <vehicle id="349" depart="872.50">
        <route edges="gneE3 -gneE2"/>
    </vehicle>
    <vehicle id="350" depart="875.00">
        <route edges="gneE2 -gneE3"/>
    </vehicle>
    <vehicle id="351" depart="877.50">
        <route edges="gneE3 gneE4"/>
    </vehicle>
    <vehicle id="352" depart="880.00">
        <route edges="-gneE6 gneE4"/>
    </vehicle>
    <vehicle id="353" depart="882.50">
        <route edges="gneE2 gneE4"/>
    </vehicle>
    <vehicle id="356" depart="890.00">
        <route edges="gneE2 gneE6"/>
    </vehicle>
    <vehicle id="357" depart="892.50">
        <route edges="-gneE6 -gneE3"/>
    </vehicle>
    <vehicle id="359" depart="897.50">
        <route edges="gneE2 -gneE3"/>
    </vehicle>
    <vehicle id="361" depart="902.50">
        <route edges="-gneE6 gneE4"/>
    </vehicle>
    <vehicle id="362" depart="905.00">
        <route edges="gneE3 -gneE2"/>
    </vehicle>
    <vehicle id="363" depart="907.50">
        <route edges="-gneE6 gneE4"/>
    </vehicle>
    <vehicle id="365" depart="912.50">
        <route edges="gneE2 gneE4"/>
    </vehicle>
    <vehicle id="366" depart="915.00">
        <route edges="gneE2 gneE4"/>
    </vehicle>
    <vehicle id="368" depart="920.00">
        <route edges="gneE3 gneE6"/>
    </vehicle>
    <vehicle id="369" depart="922.50">
        <route edges="-gneE4 -gneE2"/>
    </vehicle>
    <vehicle id="371" depart="927.50">
        <route edges="-gneE4 -gneE3"/>
    </vehicle>
    <vehicle id="372" depart="930.00">
        <route edges="gneE3 gneE6"/>
    </vehicle>
    <vehicle id="374" depart="935.00">
        <route edges="gneE2 -gneE3"/>
    </vehicle>
    <vehicle id="376" depart="940.00">
        <route edges="gneE3 -gneE2"/>
    </vehicle>
    <vehicle id="377" depart="942.50">
        <route edges="-gneE4 -gneE3"/>
    </vehicle>
    <vehicle id="378" depart="945.00">
        <route edges="gneE2 gneE4"/>
    </vehicle>
    <vehicle id="380" depart="950.00">
        <route edges="gneE3 gneE4"/>
    </vehicle>
    <vehicle id="382" depart="955.00">
        <route edges="gneE3 -gneE2"/>
    </vehicle>
    <vehicle id="383" depart="957.50">
        <route edges="-gneE4 -gneE2"/>
    </vehicle>
    <vehicle id="385" depart="962.50">
        <route edges="-gneE6 -gneE2"/>
    </vehicle>
    <vehicle id="386" depart="965.00">
        <route edges="-gneE6 gneE4"/>
    </vehicle>
    <vehicle id="388" depart="970.00">
        <route edges="-gneE6 -gneE3"/>
    </vehicle>
    <vehicle id="389" depart="972.50">
        <route edges="-gneE4 -gneE3"/>
    </vehicle>
    <vehicle id="390" depart="975.00">
        <route edges="gneE2 gneE4"/>
    </vehicle>
    <vehicle id="391" depart="977.50">
        <route edges="-gneE6 -gneE2"/>
    </vehicle>
    <vehicle id="392" depart="980.00">
        <route edges="gneE2 gneE6"/>
    </vehicle>
    <vehicle id="393" depart="982.50">
        <route edges="-gneE6 -gneE2"/>
    </vehicle>
    <vehicle id="394" depart="985.00">
        <route edges="gneE2 gneE4"/>
    </vehicle>
    <vehicle id="395" depart="987.50">
        <route edges="-gneE4 -gneE3"/>
    </vehicle>
    <vehicle id="396" depart="990.00">
        <route edges="gneE3 -gneE2"/>
    </vehicle>
    <vehicle id="397" depart="992.50">
        <route edges="-gneE6 -gneE3"/>
    </vehicle>
    <vehicle id="398" depart="995.00">
        <route edges="gneE3 gneE4"/>
    </vehicle>
    <vehicle id="399" depart="997.50">
        <route edges="gneE2 gneE4"/>
    </vehicle>
</routes>
