<?xml version="1.0" encoding="UTF-8"?>

<!-- generated on Sun May  6 19:04:12 2018 by SUMO duarouter Version 0.30.0
<?xml version="1.0" encoding="UTF-8"?>

<configuration xmlns:xsi="http://www.w3.org/2001/XMLSchema-instance" xsi:noNamespaceSchemaLocation="http://sumo.dlr.de/xsd/duarouterConfiguration.xsd">

    <input>
        <net-file value="cross/cross.net.xml"/>
        <route-files value="trips.trips.xml"/>
    </input>

    <output>
        <output-file value="cross/route/cross-1.5-3.rou.xml"/>
    </output>

    <processing>
        <ignore-errors value="true"/>
    </processing>

    <time>
        <begin value="0.0"/>
        <end value="1000.0"/>
    </time>

    <report>
        <no-warnings value="true"/>
        <no-step-log value="true"/>
    </report>

</configuration>
-->

<routes xmlns:xsi="http://www.w3.org/2001/XMLSchema-instance" xsi:noNamespaceSchemaLocation="http://sumo.dlr.de/xsd/routes_file.xsd">
    <vehicle id="0" depart="0.00">
        <route edges="-gneE4 -gneE2"/>
    </vehicle>
    <vehicle id="1" depart="1.50">
        <route edges="gneE3 gneE6"/>
    </vehicle>
    <vehicle id="2" depart="3.00">
        <route edges="gneE3 gneE4"/>
    </vehicle>
    <vehicle id="3" depart="4.50">
        <route edges="gneE2 -gneE3"/>
    </vehicle>
    <vehicle id="4" depart="6.00">
        <route edges="-gneE6 -gneE3"/>
    </vehicle>
    <vehicle id="5" depart="7.50">
        <route edges="-gneE6 -gneE2"/>
    </vehicle>
    <vehicle id="6" depart="9.00">
        <route edges="-gneE6 -gneE3"/>
    </vehicle>
    <vehicle id="7" depart="10.50">
        <route edges="-gneE6 -gneE2"/>
    </vehicle>
    <vehicle id="8" depart="12.00">
        <route edges="gneE2 gneE6"/>
    </vehicle>
    <vehicle id="9" depart="13.50">
        <route edges="gneE2 gneE6"/>
    </vehicle>
    <vehicle id="10" depart="15.00">
        <route edges="-gneE4 gneE6"/>
    </vehicle>
    <vehicle id="11" depart="16.50">
        <route edges="gneE3 gneE6"/>
    </vehicle>
    <vehicle id="13" depart="19.50">
        <route edges="-gneE4 -gneE3"/>
    </vehicle>
    <vehicle id="15" depart="22.50">
        <route edges="gneE2 -gneE3"/>
    </vehicle>
    <vehicle id="17" depart="25.50">
        <route edges="gneE2 -gneE3"/>
    </vehicle>
    <vehicle id="18" depart="27.00">
        <route edges="-gneE4 -gneE2"/>
    </vehicle>
    <vehicle id="19" depart="28.50">
        <route edges="gneE3 gneE6"/>
    </vehicle>
    <vehicle id="20" depart="30.00">
        <route edges="gneE3 -gneE2"/>
    </vehicle>
    <vehicle id="21" depart="31.50">
        <route edges="-gneE6 -gneE2"/>
    </vehicle>
    <vehicle id="25" depart="37.50">
        <route edges="gneE3 -gneE2"/>
    </vehicle>
    <vehicle id="26" depart="39.00">
        <route edges="-gneE4 -gneE3"/>
    </vehicle>
    <vehicle id="27" depart="40.50">
        <route edges="gneE3 gneE6"/>
    </vehicle>
    <vehicle id="29" depart="43.50">
        <route edges="-gneE4 -gneE2"/>
    </vehicle>
    <vehicle id="30" depart="45.00">
        <route edges="gneE3 -gneE2"/>
    </vehicle>
    <vehicle id="31" depart="46.50">
        <route edges="gneE2 -gneE3"/>
    </vehicle>
    <vehicle id="32" depart="48.00">
        <route edges="gneE3 gneE6"/>
    </vehicle>
    <vehicle id="33" depart="49.50">
        <route edges="-gneE4 gneE6"/>
    </vehicle>
    <vehicle id="35" depart="52.50">
        <route edges="-gneE4 gneE6"/>
    </vehicle>
    <vehicle id="37" depart="55.50">
        <route edges="-gneE4 -gneE3"/>
    </vehicle>
    <vehicle id="38" depart="57.00">
        <route edges="gneE3 -gneE2"/>
    </vehicle>
    <vehicle id="39" depart="58.50">
        <route edges="gneE3 -gneE2"/>
    </vehicle>
    <vehicle id="42" depart="63.00">
        <route edges="gneE3 -gneE2"/>
    </vehicle>
    <vehicle id="43" depart="64.50">
        <route edges="-gneE4 gneE6"/>
    </vehicle>
    <vehicle id="44" depart="66.00">
        <route edges="-gneE6 gneE4"/>
    </vehicle>
    <vehicle id="46" depart="69.00">
        <route edges="-gneE4 gneE6"/>
    </vehicle>
    <vehicle id="48" depart="72.00">
        <route edges="-gneE6 gneE4"/>
    </vehicle>
    <vehicle id="49" depart="73.50">
        <route edges="gneE3 gneE4"/>
    </vehicle>
    <vehicle id="50" depart="75.00">
        <route edges="gneE2 -gneE3"/>
    </vehicle>
    <vehicle id="52" depart="78.00">
        <route edges="gneE2 gneE6"/>
    </vehicle>
    <vehicle id="53" depart="79.50">
        <route edges="-gneE4 gneE6"/>
    </vehicle>
    <vehicle id="54" depart="81.00">
        <route edges="-gneE4 -gneE2"/>
    </vehicle>
    <vehicle id="56" depart="84.00">
        <route edges="gneE3 gneE4"/>
    </vehicle>
    <vehicle id="57" depart="85.50">
        <route edges="gneE3 gneE4"/>
    </vehicle>
    <vehicle id="59" depart="88.50">
        <route edges="-gneE6 -gneE3"/>
    </vehicle>
    <vehicle id="60" depart="90.00">
        <route edges="gneE3 gneE6"/>
    </vehicle>
    <vehicle id="61" depart="91.50">
        <route edges="gneE2 -gneE3"/>
    </vehicle>
    <vehicle id="62" depart="93.00">
        <route edges="-gneE6 gneE4"/>
    </vehicle>
    <vehicle id="65" depart="97.50">
        <route edges="gneE3 gneE4"/>
    </vehicle>
    <vehicle id="66" depart="99.00">
        <route edges="-gneE4 -gneE3"/>
    </vehicle>
    <vehicle id="68" depart="102.00">
        <route edges="gneE3 -gneE2"/>
    </vehicle>
    <vehicle id="69" depart="103.50">
        <route edges="-gneE6 gneE4"/>
    </vehicle>
    <vehicle id="70" depart="105.00">
        <route edges="gneE2 -gneE3"/>
    </vehicle>
    <vehicle id="71" depart="106.50">
        <route edges="gneE2 gneE6"/>
    </vehicle>
    <vehicle id="72" depart="108.00">
        <route edges="-gneE6 -gneE2"/>
    </vehicle>
    <vehicle id="73" depart="109.50">
        <route edges="gneE3 -gneE2"/>
    </vehicle>
    <vehicle id="75" depart="112.50">
        <route edges="-gneE4 -gneE2"/>
    </vehicle>
    <vehicle id="76" depart="114.00">
        <route edges="gneE3 gneE4"/>
    </vehicle>
    <vehicle id="77" depart="115.50">
        <route edges="-gneE6 gneE4"/>
    </vehicle>
    <vehicle id="78" depart="117.00">
        <route edges="gneE2 gneE4"/>
    </vehicle>
    <vehicle id="79" depart="118.50">
        <route edges="-gneE6 gneE4"/>
    </vehicle>
    <vehicle id="81" depart="121.50">
        <route edges="-gneE6 -gneE3"/>
    </vehicle>
    <vehicle id="82" depart="123.00">
        <route edges="gneE2 gneE6"/>
    </vehicle>
    <vehicle id="83" depart="124.50">
        <route edges="gneE2 gneE4"/>
    </vehicle>
    <vehicle id="84" depart="126.00">
        <route edges="-gneE6 gneE4"/>
    </vehicle>
    <vehicle id="86" depart="129.00">
        <route edges="gneE2 gneE4"/>
    </vehicle>
    <vehicle id="87" depart="130.50">
        <route edges="gneE3 -gneE2"/>
    </vehicle>
    <vehicle id="88" depart="132.00">
        <route edges="-gneE4 -gneE3"/>
    </vehicle>
    <vehicle id="89" depart="133.50">
        <route edges="gneE2 -gneE3"/>
    </vehicle>
    <vehicle id="90" depart="135.00">
        <route edges="-gneE6 -gneE3"/>
    </vehicle>
    <vehicle id="92" depart="138.00">
        <route edges="gneE2 gneE4"/>
    </vehicle>
    <vehicle id="94" depart="141.00">
        <route edges="-gneE4 -gneE3"/>
    </vehicle>
    <vehicle id="95" depart="142.50">
        <route edges="gneE2 gneE4"/>
    </vehicle>
    <vehicle id="97" depart="145.50">
        <route edges="gneE3 gneE4"/>
    </vehicle>
    <vehicle id="98" depart="147.00">
        <route edges="-gneE4 -gneE3"/>
    </vehicle>
    <vehicle id="99" depart="148.50">
        <route edges="-gneE6 gneE4"/>
    </vehicle>
    <vehicle id="100" depart="150.00">
        <route edges="-gneE6 gneE4"/>
    </vehicle>
    <vehicle id="102" depart="153.00">
        <route edges="-gneE6 -gneE3"/>
    </vehicle>
    <vehicle id="103" depart="154.50">
        <route edges="gneE3 -gneE2"/>
    </vehicle>
    <vehicle id="104" depart="156.00">
        <route edges="-gneE4 gneE6"/>
    </vehicle>
    <vehicle id="105" depart="157.50">
        <route edges="-gneE4 -gneE2"/>
    </vehicle>
    <vehicle id="106" depart="159.00">
        <route edges="-gneE6 gneE4"/>
    </vehicle>
    <vehicle id="110" depart="165.00">
        <route edges="gneE2 gneE6"/>
    </vehicle>
    <vehicle id="111" depart="166.50">
        <route edges="gneE3 gneE4"/>
    </vehicle>
    <vehicle id="113" depart="169.50">
        <route edges="-gneE4 -gneE3"/>
    </vehicle>
    <vehicle id="114" depart="171.00">
        <route edges="gneE2 gneE4"/>
    </vehicle>
    <vehicle id="116" depart="174.00">
        <route edges="-gneE6 -gneE2"/>
    </vehicle>
    <vehicle id="117" depart="175.50">
        <route edges="-gneE6 gneE4"/>
    </vehicle>
    <vehicle id="118" depart="177.00">
        <route edges="-gneE4 gneE6"/>
    </vehicle>
    <vehicle id="119" depart="178.50">
        <route edges="-gneE4 -gneE2"/>
    </vehicle>
    <vehicle id="120" depart="180.00">
        <route edges="-gneE4 gneE6"/>
    </vehicle>
    <vehicle id="122" depart="183.00">
        <route edges="-gneE4 gneE6"/>
    </vehicle>
    <vehicle id="124" depart="186.00">
        <route edges="-gneE6 -gneE3"/>
    </vehicle>
    <vehicle id="125" depart="187.50">
        <route edges="gneE2 gneE6"/>
    </vehicle>
    <vehicle id="126" depart="189.00">
        <route edges="-gneE6 gneE4"/>
    </vehicle>
    <vehicle id="127" depart="190.50">
        <route edges="-gneE4 -gneE2"/>
    </vehicle>
    <vehicle id="128" depart="192.00">
        <route edges="-gneE6 gneE4"/>
    </vehicle>
    <vehicle id="129" depart="193.50">
        <route edges="-gneE4 gneE6"/>
    </vehicle>
    <vehicle id="130" depart="195.00">
        <route edges="gneE2 gneE6"/>
    </vehicle>
    <vehicle id="131" depart="196.50">
        <route edges="-gneE4 -gneE3"/>
    </vehicle>
    <vehicle id="135" depart="202.50">
        <route edges="-gneE4 -gneE2"/>
    </vehicle>
    <vehicle id="137" depart="205.50">
        <route edges="gneE3 gneE6"/>
    </vehicle>
    <vehicle id="138" depart="207.00">
        <route edges="-gneE4 gneE6"/>
    </vehicle>
    <vehicle id="139" depart="208.50">
        <route edges="-gneE6 -gneE3"/>
    </vehicle>
    <vehicle id="140" depart="210.00">
        <route edges="gneE3 gneE4"/>
    </vehicle>
    <vehicle id="141" depart="211.50">
        <route edges="-gneE4 -gneE3"/>
    </vehicle>
    <vehicle id="142" depart="213.00">
        <route edges="gneE2 gneE6"/>
    </vehicle>
    <vehicle id="143" depart="214.50">
        <route edges="gneE3 gneE4"/>
    </vehicle>
    <vehicle id="144" depart="216.00">
        <route edges="-gneE6 gneE4"/>
    </vehicle>
    <vehicle id="146" depart="219.00">
        <route edges="gneE3 gneE4"/>
    </vehicle>
    <vehicle id="147" depart="220.50">
        <route edges="gneE3 -gneE2"/>
    </vehicle>
    <vehicle id="150" depart="225.00">
        <route edges="gneE3 gneE6"/>
    </vehicle>
    <vehicle id="151" depart="226.50">
        <route edges="gneE3 -gneE2"/>
    </vehicle>
    <vehicle id="155" depart="232.50">
        <route edges="gneE3 gneE6"/>
    </vehicle>
    <vehicle id="156" depart="234.00">
        <route edges="gneE3 gneE4"/>
    </vehicle>
    <vehicle id="157" depart="235.50">
        <route edges="-gneE4 -gneE3"/>
    </vehicle>
    <vehicle id="158" depart="237.00">
        <route edges="-gneE4 -gneE3"/>
    </vehicle>
    <vehicle id="160" depart="240.00">
        <route edges="-gneE6 -gneE3"/>
    </vehicle>
    <vehicle id="161" depart="241.50">
        <route edges="gneE3 gneE4"/>
    </vehicle>
    <vehicle id="162" depart="243.00">
        <route edges="-gneE4 -gneE2"/>
    </vehicle>
    <vehicle id="163" depart="244.50">
        <route edges="-gneE4 -gneE2"/>
    </vehicle>
    <vehicle id="164" depart="246.00">
        <route edges="gneE3 -gneE2"/>
    </vehicle>
    <vehicle id="165" depart="247.50">
        <route edges="-gneE6 -gneE3"/>
    </vehicle>
    <vehicle id="166" depart="249.00">
        <route edges="-gneE4 -gneE2"/>
    </vehicle>
    <vehicle id="167" depart="250.50">
        <route edges="-gneE6 -gneE3"/>
    </vehicle>
    <vehicle id="168" depart="252.00">
        <route edges="gneE3 gneE4"/>
    </vehicle>
    <vehicle id="169" depart="253.50">
        <route edges="gneE2 gneE6"/>
    </vehicle>
    <vehicle id="170" depart="255.00">
        <route edges="-gneE4 -gneE2"/>
    </vehicle>
    <vehicle id="171" depart="256.50">
        <route edges="-gneE6 -gneE3"/>
    </vehicle>
    <vehicle id="172" depart="258.00">
        <route edges="-gneE4 -gneE3"/>
    </vehicle>
    <vehicle id="173" depart="259.50">
        <route edges="gneE2 -gneE3"/>
    </vehicle>
    <vehicle id="174" depart="261.00">
        <route edges="gneE3 -gneE2"/>
    </vehicle>
    <vehicle id="175" depart="262.50">
        <route edges="gneE2 gneE6"/>
    </vehicle>
    <vehicle id="176" depart="264.00">
        <route edges="gneE3 gneE4"/>
    </vehicle>
    <vehicle id="177" depart="265.50">
        <route edges="-gneE4 -gneE2"/>
    </vehicle>
    <vehicle id="178" depart="267.00">
        <route edges="gneE2 gneE4"/>
    </vehicle>
    <vehicle id="179" depart="268.50">
        <route edges="-gneE6 -gneE2"/>
    </vehicle>
    <vehicle id="180" depart="270.00">
        <route edges="-gneE4 -gneE3"/>
    </vehicle>
    <vehicle id="181" depart="271.50">
        <route edges="-gneE4 -gneE3"/>
    </vehicle>
    <vehicle id="182" depart="273.00">
        <route edges="gneE2 gneE4"/>
    </vehicle>
    <vehicle id="183" depart="274.50">
        <route edges="gneE3 gneE4"/>
    </vehicle>
    <vehicle id="184" depart="276.00">
        <route edges="gneE3 gneE6"/>
    </vehicle>
    <vehicle id="186" depart="279.00">
        <route edges="gneE3 gneE6"/>
    </vehicle>
    <vehicle id="187" depart="280.50">
        <route edges="-gneE6 gneE4"/>
    </vehicle>
    <vehicle id="189" depart="283.50">
        <route edges="gneE3 -gneE2"/>
    </vehicle>
    <vehicle id="190" depart="285.00">
        <route edges="gneE3 gneE6"/>
    </vehicle>
    <vehicle id="191" depart="286.50">
        <route edges="-gneE6 -gneE3"/>
    </vehicle>
    <vehicle id="192" depart="288.00">
        <route edges="gneE3 gneE4"/>
    </vehicle>
    <vehicle id="194" depart="291.00">
        <route edges="gneE3 gneE4"/>
    </vehicle>
    <vehicle id="195" depart="292.50">
        <route edges="-gneE6 gneE4"/>
    </vehicle>
    <vehicle id="197" depart="295.50">
        <route edges="gneE3 gneE4"/>
    </vehicle>
    <vehicle id="199" depart="298.50">
        <route edges="-gneE6 -gneE3"/>
    </vehicle>
    <vehicle id="201" depart="301.50">
        <route edges="gneE2 -gneE3"/>
    </vehicle>
    <vehicle id="203" depart="304.50">
        <route edges="gneE3 gneE4"/>
    </vehicle>
    <vehicle id="206" depart="309.00">
        <route edges="gneE2 gneE6"/>
    </vehicle>
    <vehicle id="207" depart="310.50">
        <route edges="-gneE4 -gneE3"/>
    </vehicle>
    <vehicle id="209" depart="313.50">
        <route edges="gneE2 -gneE3"/>
    </vehicle>
    <vehicle id="210" depart="315.00">
        <route edges="-gneE6 gneE4"/>
    </vehicle>
    <vehicle id="211" depart="316.50">
        <route edges="gneE2 -gneE3"/>
    </vehicle>
    <vehicle id="212" depart="318.00">
        <route edges="-gneE6 -gneE3"/>
    </vehicle>
    <vehicle id="213" depart="319.50">
        <route edges="gneE3 -gneE2"/>
    </vehicle>
    <vehicle id="215" depart="322.50">
        <route edges="gneE2 -gneE3"/>
    </vehicle>
    <vehicle id="220" depart="330.00">
        <route edges="-gneE6 -gneE2"/>
    </vehicle>
    <vehicle id="221" depart="331.50">
        <route edges="gneE3 gneE4"/>
    </vehicle>
    <vehicle id="222" depart="333.00">
        <route edges="gneE2 -gneE3"/>
    </vehicle>
    <vehicle id="223" depart="334.50">
        <route edges="gneE2 -gneE3"/>
    </vehicle>
    <vehicle id="224" depart="336.00">
        <route edges="gneE3 gneE4"/>
    </vehicle>
    <vehicle id="225" depart="337.50">
        <route edges="gneE3 -gneE2"/>
    </vehicle>
    <vehicle id="226" depart="339.00">
        <route edges="gneE3 gneE4"/>
    </vehicle>
    <vehicle id="227" depart="340.50">
        <route edges="gneE3 gneE6"/>
    </vehicle>
    <vehicle id="228" depart="342.00">
        <route edges="gneE2 -gneE3"/>
    </vehicle>
    <vehicle id="230" depart="345.00">
        <route edges="gneE2 gneE6"/>
    </vehicle>
    <vehicle id="231" depart="346.50">
        <route edges="-gneE6 -gneE2"/>
    </vehicle>
    <vehicle id="232" depart="348.00">
        <route edges="-gneE6 -gneE3"/>
    </vehicle>
    <vehicle id="234" depart="351.00">
        <route edges="-gneE4 -gneE3"/>
    </vehicle>
    <vehicle id="235" depart="352.50">
        <route edges="-gneE6 -gneE2"/>
    </vehicle>
    <vehicle id="236" depart="354.00">
        <route edges="-gneE6 -gneE2"/>
    </vehicle>
    <vehicle id="237" depart="355.50">
        <route edges="-gneE4 gneE6"/>
    </vehicle>
    <vehicle id="239" depart="358.50">
        <route edges="gneE2 -gneE3"/>
    </vehicle>
    <vehicle id="240" depart="360.00">
        <route edges="gneE3 -gneE2"/>
    </vehicle>
    <vehicle id="241" depart="361.50">
        <route edges="-gneE6 -gneE2"/>
    </vehicle>
    <vehicle id="244" depart="366.00">
        <route edges="-gneE6 gneE4"/>
    </vehicle>
    <vehicle id="245" depart="367.50">
        <route edges="gneE3 gneE4"/>
    </vehicle>
    <vehicle id="246" depart="369.00">
        <route edges="gneE3 gneE4"/>
    </vehicle>
    <vehicle id="247" depart="370.50">
        <route edges="-gneE6 gneE4"/>
    </vehicle>
    <vehicle id="249" depart="373.50">
        <route edges="gneE3 gneE4"/>
    </vehicle>
    <vehicle id="250" depart="375.00">
        <route edges="-gneE6 gneE4"/>
    </vehicle>
    <vehicle id="251" depart="376.50">
        <route edges="gneE3 -gneE2"/>
    </vehicle>
    <vehicle id="252" depart="378.00">
        <route edges="gneE2 -gneE3"/>
    </vehicle>
    <vehicle id="254" depart="381.00">
        <route edges="-gneE4 -gneE2"/>
    </vehicle>
    <vehicle id="255" depart="382.50">
        <route edges="gneE2 gneE6"/>
    </vehicle>
    <vehicle id="257" depart="385.50">
        <route edges="gneE2 gneE4"/>
    </vehicle>
    <vehicle id="259" depart="388.50">
        <route edges="-gneE4 -gneE2"/>
    </vehicle>
    <vehicle id="260" depart="390.00">
        <route edges="gneE3 gneE4"/>
    </vehicle>
    <vehicle id="261" depart="391.50">
        <route edges="-gneE6 gneE4"/>
    </vehicle>
    <vehicle id="263" depart="394.50">
        <route edges="gneE3 -gneE2"/>
    </vehicle>
    <vehicle id="266" depart="399.00">
        <route edges="-gneE4 -gneE2"/>
    </vehicle>
    <vehicle id="267" depart="400.50">
        <route edges="gneE2 gneE6"/>
    </vehicle>
    <vehicle id="269" depart="403.50">
        <route edges="-gneE6 -gneE2"/>
    </vehicle>
    <vehicle id="270" depart="405.00">
        <route edges="gneE2 gneE4"/>
    </vehicle>
    <vehicle id="271" depart="406.50">
        <route edges="-gneE4 -gneE3"/>
    </vehicle>
    <vehicle id="272" depart="408.00">
        <route edges="gneE3 gneE6"/>
    </vehicle>
    <vehicle id="274" depart="411.00">
        <route edges="gneE3 gneE6"/>
    </vehicle>
    <vehicle id="275" depart="412.50">
        <route edges="-gneE6 -gneE3"/>
    </vehicle>
    <vehicle id="276" depart="414.00">
        <route edges="gneE2 -gneE3"/>
    </vehicle>
    <vehicle id="278" depart="417.00">
        <route edges="-gneE6 -gneE2"/>
    </vehicle>
    <vehicle id="281" depart="421.50">
        <route edges="-gneE6 -gneE3"/>
    </vehicle>
    <vehicle id="282" depart="423.00">
        <route edges="-gneE4 -gneE2"/>
    </vehicle>
    <vehicle id="283" depart="424.50">
        <route edges="-gneE6 gneE4"/>
    </vehicle>
    <vehicle id="284" depart="426.00">
        <route edges="-gneE6 gneE4"/>
    </vehicle>
    <vehicle id="286" depart="429.00">
        <route edges="gneE3 -gneE2"/>
    </vehicle>
    <vehicle id="287" depart="430.50">
        <route edges="-gneE4 gneE6"/>
    </vehicle>
    <vehicle id="288" depart="432.00">
        <route edges="-gneE6 -gneE3"/>
    </vehicle>
    <vehicle id="289" depart="433.50">
        <route edges="-gneE6 -gneE3"/>
    </vehicle>
    <vehicle id="290" depart="435.00">
        <route edges="-gneE6 -gneE3"/>
    </vehicle>
    <vehicle id="292" depart="438.00">
        <route edges="-gneE6 gneE4"/>
    </vehicle>
    <vehicle id="293" depart="439.50">
        <route edges="-gneE4 gneE6"/>
    </vehicle>
    <vehicle id="294" depart="441.00">
        <route edges="gneE2 gneE4"/>
    </vehicle>
    <vehicle id="296" depart="444.00">
        <route edges="gneE3 -gneE2"/>
    </vehicle>
    <vehicle id="297" depart="445.50">
        <route edges="gneE3 -gneE2"/>
    </vehicle>
    <vehicle id="299" depart="448.50">
        <route edges="-gneE4 gneE6"/>
    </vehicle>
    <vehicle id="301" depart="451.50">
        <route edges="-gneE6 gneE4"/>
    </vehicle>
    <vehicle id="302" depart="453.00">
        <route edges="-gneE6 gneE4"/>
    </vehicle>
    <vehicle id="304" depart="456.00">
        <route edges="gneE2 gneE4"/>
    </vehicle>
    <vehicle id="305" depart="457.50">
        <route edges="-gneE6 -gneE3"/>
    </vehicle>
    <vehicle id="306" depart="459.00">
        <route edges="gneE3 gneE6"/>
    </vehicle>
    <vehicle id="307" depart="460.50">
        <route edges="-gneE4 gneE6"/>
    </vehicle>
    <vehicle id="308" depart="462.00">
        <route edges="gneE3 -gneE2"/>
    </vehicle>
    <vehicle id="309" depart="463.50">
        <route edges="-gneE4 -gneE3"/>
    </vehicle>
    <vehicle id="310" depart="465.00">
        <route edges="gneE3 gneE6"/>
    </vehicle>
    <vehicle id="311" depart="466.50">
        <route edges="gneE3 gneE6"/>
    </vehicle>
    <vehicle id="312" depart="468.00">
        <route edges="gneE2 gneE4"/>
    </vehicle>
    <vehicle id="313" depart="469.50">
        <route edges="gneE3 gneE6"/>
    </vehicle>
    <vehicle id="315" depart="472.50">
        <route edges="-gneE4 gneE6"/>
    </vehicle>
    <vehicle id="316" depart="474.00">
        <route edges="-gneE6 -gneE3"/>
    </vehicle>
    <vehicle id="318" depart="477.00">
        <route edges="-gneE4 gneE6"/>
    </vehicle>
    <vehicle id="319" depart="478.50">
        <route edges="gneE2 -gneE3"/>
    </vehicle>
    <vehicle id="320" depart="480.00">
        <route edges="-gneE6 -gneE2"/>
    </vehicle>
    <vehicle id="321" depart="481.50">
        <route edges="-gneE6 -gneE3"/>
    </vehicle>
    <vehicle id="322" depart="483.00">
        <route edges="-gneE4 -gneE3"/>
    </vehicle>
    <vehicle id="324" depart="486.00">
        <route edges="gneE3 gneE6"/>
    </vehicle>
    <vehicle id="325" depart="487.50">
        <route edges="gneE2 gneE4"/>
    </vehicle>
    <vehicle id="326" depart="489.00">
        <route edges="gneE3 -gneE2"/>
    </vehicle>
    <vehicle id="327" depart="490.50">
        <route edges="gneE2 gneE4"/>
    </vehicle>
    <vehicle id="329" depart="493.50">
        <route edges="-gneE6 -gneE2"/>
    </vehicle>
    <vehicle id="330" depart="495.00">
        <route edges="-gneE6 -gneE3"/>
    </vehicle>
    <vehicle id="331" depart="496.50">
        <route edges="-gneE4 gneE6"/>
    </vehicle>
    <vehicle id="332" depart="498.00">
        <route edges="-gneE4 -gneE3"/>
    </vehicle>
    <vehicle id="333" depart="499.50">
        <route edges="gneE3 gneE4"/>
    </vehicle>
    <vehicle id="335" depart="502.50">
        <route edges="-gneE6 -gneE2"/>
    </vehicle>
    <vehicle id="336" depart="504.00">
        <route edges="gneE2 gneE4"/>
    </vehicle>
    <vehicle id="337" depart="505.50">
        <route edges="gneE3 gneE6"/>
    </vehicle>
    <vehicle id="339" depart="508.50">
        <route edges="gneE3 gneE4"/>
    </vehicle>
    <vehicle id="340" depart="510.00">
        <route edges="-gneE6 -gneE3"/>
    </vehicle>
    <vehicle id="341" depart="511.50">
        <route edges="gneE2 gneE4"/>
    </vehicle>
    <vehicle id="342" depart="513.00">
        <route edges="-gneE6 gneE4"/>
    </vehicle>
    <vehicle id="343" depart="514.50">
        <route edges="-gneE6 -gneE2"/>
    </vehicle>
    <vehicle id="344" depart="516.00">
        <route edges="gneE2 gneE6"/>
    </vehicle>
    <vehicle id="345" depart="517.50">
        <route edges="gneE3 gneE4"/>
    </vehicle>
    <vehicle id="348" depart="522.00">
        <route edges="-gneE6 -gneE2"/>
    </vehicle>
    <vehicle id="349" depart="523.50">
        <route edges="-gneE6 gneE4"/>
    </vehicle>
    <vehicle id="350" depart="525.00">
        <route edges="-gneE4 -gneE3"/>
    </vehicle>
    <vehicle id="351" depart="526.50">
        <route edges="gneE3 -gneE2"/>
    </vehicle>
    <vehicle id="352" depart="528.00">
        <route edges="gneE3 -gneE2"/>
    </vehicle>
    <vehicle id="353" depart="529.50">
        <route edges="-gneE6 -gneE2"/>
    </vehicle>
    <vehicle id="354" depart="531.00">
        <route edges="gneE3 -gneE2"/>
    </vehicle>
    <vehicle id="355" depart="532.50">
        <route edges="-gneE4 gneE6"/>
    </vehicle>
    <vehicle id="356" depart="534.00">
        <route edges="-gneE4 -gneE3"/>
    </vehicle>
    <vehicle id="357" depart="535.50">
        <route edges="gneE2 -gneE3"/>
    </vehicle>
    <vehicle id="358" depart="537.00">
        <route edges="gneE2 -gneE3"/>
    </vehicle>
    <vehicle id="359" depart="538.50">
        <route edges="-gneE6 gneE4"/>
    </vehicle>
    <vehicle id="360" depart="540.00">
        <route edges="gneE2 -gneE3"/>
    </vehicle>
    <vehicle id="361" depart="541.50">
        <route edges="gneE3 gneE6"/>
    </vehicle>
    <vehicle id="362" depart="543.00">
        <route edges="gneE3 -gneE2"/>
    </vehicle>
    <vehicle id="363" depart="544.50">
        <route edges="gneE2 gneE6"/>
    </vehicle>
    <vehicle id="364" depart="546.00">
        <route edges="gneE2 -gneE3"/>
    </vehicle>
    <vehicle id="366" depart="549.00">
        <route edges="-gneE4 -gneE2"/>
    </vehicle>
    <vehicle id="367" depart="550.50">
        <route edges="gneE3 gneE4"/>
    </vehicle>
    <vehicle id="368" depart="552.00">
        <route edges="gneE2 -gneE3"/>
    </vehicle>
    <vehicle id="370" depart="555.00">
        <route edges="-gneE4 -gneE3"/>
    </vehicle>
    <vehicle id="373" depart="559.50">
        <route edges="-gneE4 gneE6"/>
    </vehicle>
    <vehicle id="374" depart="561.00">
        <route edges="gneE3 gneE6"/>
    </vehicle>
    <vehicle id="376" depart="564.00">
        <route edges="-gneE6 -gneE2"/>
    </vehicle>
    <vehicle id="378" depart="567.00">
        <route edges="-gneE4 -gneE2"/>
    </vehicle>
    <vehicle id="379" depart="568.50">
        <route edges="gneE2 gneE4"/>
    </vehicle>
    <vehicle id="381" depart="571.50">
        <route edges="-gneE6 gneE4"/>
    </vehicle>
    <vehicle id="382" depart="573.00">
        <route edges="-gneE6 -gneE2"/>
    </vehicle>
    <vehicle id="383" depart="574.50">
        <route edges="gneE2 -gneE3"/>
    </vehicle>
    <vehicle id="384" depart="576.00">
        <route edges="gneE3 -gneE2"/>
    </vehicle>
    <vehicle id="386" depart="579.00">
        <route edges="-gneE6 gneE4"/>
    </vehicle>
    <vehicle id="387" depart="580.50">
        <route edges="-gneE4 -gneE3"/>
    </vehicle>
    <vehicle id="389" depart="583.50">
        <route edges="gneE3 -gneE2"/>
    </vehicle>
    <vehicle id="390" depart="585.00">
        <route edges="-gneE6 -gneE2"/>
    </vehicle>
    <vehicle id="391" depart="586.50">
        <route edges="-gneE4 -gneE2"/>
    </vehicle>
    <vehicle id="392" depart="588.00">
        <route edges="gneE2 gneE4"/>
    </vehicle>
    <vehicle id="394" depart="591.00">
        <route edges="gneE3 gneE4"/>
    </vehicle>
    <vehicle id="395" depart="592.50">
        <route edges="gneE3 gneE6"/>
    </vehicle>
    <vehicle id="397" depart="595.50">
        <route edges="gneE3 gneE6"/>
    </vehicle>
    <vehicle id="398" depart="597.00">
        <route edges="-gneE4 -gneE2"/>
    </vehicle>
    <vehicle id="400" depart="600.00">
        <route edges="gneE2 gneE6"/>
    </vehicle>
    <vehicle id="401" depart="601.50">
        <route edges="-gneE4 -gneE3"/>
    </vehicle>
    <vehicle id="402" depart="603.00">
        <route edges="-gneE4 -gneE2"/>
    </vehicle>
    <vehicle id="403" depart="604.50">
        <route edges="-gneE4 gneE6"/>
    </vehicle>
    <vehicle id="406" depart="609.00">
        <route edges="-gneE6 -gneE3"/>
    </vehicle>
    <vehicle id="407" depart="610.50">
        <route edges="-gneE4 -gneE3"/>
    </vehicle>
    <vehicle id="408" depart="612.00">
        <route edges="-gneE6 gneE4"/>
    </vehicle>
    <vehicle id="409" depart="613.50">
        <route edges="gneE3 gneE6"/>
    </vehicle>
    <vehicle id="410" depart="615.00">
        <route edges="gneE3 gneE4"/>
    </vehicle>
    <vehicle id="411" depart="616.50">
        <route edges="gneE3 gneE4"/>
    </vehicle>
    <vehicle id="412" depart="618.00">
        <route edges="-gneE4 gneE6"/>
    </vehicle>
    <vehicle id="414" depart="621.00">
        <route edges="-gneE4 -gneE2"/>
    </vehicle>
    <vehicle id="415" depart="622.50">
        <route edges="-gneE4 -gneE2"/>
    </vehicle>
    <vehicle id="416" depart="624.00">
        <route edges="gneE3 gneE4"/>
    </vehicle>
    <vehicle id="417" depart="625.50">
        <route edges="-gneE6 gneE4"/>
    </vehicle>
    <vehicle id="418" depart="627.00">
        <route edges="-gneE6 -gneE3"/>
    </vehicle>
    <vehicle id="419" depart="628.50">
        <route edges="gneE2 -gneE3"/>
    </vehicle>
    <vehicle id="420" depart="630.00">
        <route edges="-gneE4 -gneE3"/>
    </vehicle>
    <vehicle id="421" depart="631.50">
        <route edges="-gneE6 gneE4"/>
    </vehicle>