<?xml version="1.0" encoding="UTF-8"?>

<!-- generated on Sun Sep 23 21:48:13 2018 by SUMO duarouter Version 0.30.0
<?xml version="1.0" encoding="UTF-8"?>

<configuration xmlns:xsi="http://www.w3.org/2001/XMLSchema-instance" xsi:noNamespaceSchemaLocation="http://sumo.dlr.de/xsd/duarouterConfiguration.xsd">

    <input>
        <net-file value="cross/cross.net.xml"/>
        <route-files value="trips.trips.xml"/>
    </input>

    <output>
        <output-file value="cross/route/cross-3.2-2.rou.xml"/>
    </output>

    <processing>
        <ignore-errors value="true"/>
    </processing>

    <time>
        <begin value="0.0"/>
        <end value="5600.0"/>
    </time>

    <report>
        <no-warnings value="true"/>
        <no-step-log value="true"/>
    </report>

</configuration>
-->

<routes xmlns:xsi="http://www.w3.org/2001/XMLSchema-instance" xsi:noNamespaceSchemaLocation="http://sumo.dlr.de/xsd/routes_file.xsd">
    <vehicle id="0" depart="0.00">
        <route edges="-gneE6 -gneE3"/>
    </vehicle>
    <vehicle id="1" depart="3.20">
        <route edges="-gneE6 -gneE2"/>
    </vehicle>
    <vehicle id="2" depart="6.40">
        <route edges="gneE2 gneE6"/>
    </vehicle>
    <vehicle id="3" depart="9.60">
        <route edges="-gneE4 -gneE3"/>
    </vehicle>
    <vehicle id="4" depart="12.80">
        <route edges="gneE2 gneE6"/>
    </vehicle>
    <vehicle id="5" depart="16.00">
        <route edges="gneE2 -gneE3"/>
    </vehicle>
    <vehicle id="6" depart="19.20">
        <route edges="-gneE4 gneE6"/>
    </vehicle>
    <vehicle id="7" depart="22.40">
        <route edges="-gneE4 -gneE2"/>
    </vehicle>
    <vehicle id="8" depart="25.60">
        <route edges="gneE3 gneE4"/>
    </vehicle>
    <vehicle id="9" depart="28.80">
        <route edges="-gneE6 -gneE3"/>
    </vehicle>
    <vehicle id="10" depart="32.00">
        <route edges="-gneE4 -gneE2"/>
    </vehicle>
    <vehicle id="11" depart="35.20">
        <route edges="-gneE6 -gneE3"/>
    </vehicle>
    <vehicle id="12" depart="38.40">
        <route edges="-gneE4 gneE6"/>
    </vehicle>
    <vehicle id="13" depart="41.60">
        <route edges="-gneE6 -gneE3"/>
    </vehicle>
    <vehicle id="14" depart="44.80">
        <route edges="gneE2 -gneE3"/>
    </vehicle>
    <vehicle id="15" depart="48.00">
        <route edges="-gneE4 gneE6"/>
    </vehicle>
    <vehicle id="16" depart="51.20">
        <route edges="gneE2 gneE6"/>
    </vehicle>
    <vehicle id="17" depart="54.40">
        <route edges="-gneE4 -gneE3"/>
    </vehicle>
    <vehicle id="18" depart="57.60">
        <route edges="gneE2 gneE4"/>
    </vehicle>
    <vehicle id="19" depart="60.80">
        <route edges="-gneE4 -gneE2"/>
    </vehicle>
    <vehicle id="20" depart="64.00">
        <route edges="-gneE4 -gneE3"/>
    </vehicle>
    <vehicle id="21" depart="67.20">
        <route edges="-gneE6 -gneE3"/>
    </vehicle>
    <vehicle id="22" depart="70.40">
        <route edges="-gneE6 -gneE2"/>
    </vehicle>
    <vehicle id="23" depart="73.60">
        <route edges="gneE3 gneE4"/>
    </vehicle>
    <vehicle id="24" depart="76.80">
        <route edges="gneE2 gneE4"/>
    </vehicle>
    <vehicle id="25" depart="80.00">
        <route edges="-gneE4 -gneE3"/>
    </vehicle>
    <vehicle id="26" depart="83.20">
        <route edges="-gneE6 gneE4"/>
    </vehicle>
    <vehicle id="27" depart="86.40">
        <route edges="-gneE4 -gneE2"/>
    </vehicle>
    <vehicle id="28" depart="89.60">
        <route edges="-gneE6 -gneE3"/>
    </vehicle>
    <vehicle id="29" depart="92.80">
        <route edges="-gneE4 -gneE3"/>
    </vehicle>
    <vehicle id="30" depart="96.00">
        <route edges="gneE3 gneE4"/>
    </vehicle>
    <vehicle id="31" depart="99.20">
        <route edges="-gneE6 -gneE2"/>
    </vehicle>
    <vehicle id="32" depart="102.40">
        <route edges="gneE2 gneE4"/>
    </vehicle>
    <vehicle id="33" depart="105.60">
        <route edges="-gneE4 -gneE3"/>
    </vehicle>
    <vehicle id="34" depart="108.80">
        <route edges="-gneE4 -gneE2"/>
    </vehicle>
    <vehicle id="35" depart="112.00">
        <route edges="gneE3 -gneE2"/>
    </vehicle>
    <vehicle id="36" depart="115.20">
        <route edges="-gneE6 gneE4"/>
    </vehicle>
    <vehicle id="37" depart="118.40">
        <route edges="-gneE6 gneE4"/>
    </vehicle>
    <vehicle id="38" depart="121.60">
        <route edges="gneE3 gneE6"/>
    </vehicle>
    <vehicle id="39" depart="124.80">
        <route edges="-gneE4 -gneE3"/>
    </vehicle>
    <vehicle id="40" depart="128.00">
        <route edges="gneE2 -gneE3"/>
    </vehicle>
    <vehicle id="41" depart="131.20">
        <route edges="-gneE6 gneE4"/>
    </vehicle>
    <vehicle id="42" depart="134.40">
        <route edges="gneE3 -gneE2"/>
    </vehicle>
    <vehicle id="43" depart="137.60">
        <route edges="gneE3 gneE4"/>
    </vehicle>
    <vehicle id="44" depart="140.80">
        <route edges="gneE2 -gneE3"/>
    </vehicle>
    <vehicle id="45" depart="144.00">
        <route edges="gneE3 gneE4"/>
    </vehicle>
    <vehicle id="46" depart="147.20">
        <route edges="gneE2 gneE6"/>
    </vehicle>
    <vehicle id="47" depart="150.40">
        <route edges="gneE3 -gneE2"/>
    </vehicle>
    <vehicle id="48" depart="153.60">
        <route edges="-gneE4 -gneE3"/>
    </vehicle>
    <vehicle id="49" depart="156.80">
        <route edges="gneE2 gneE6"/>
    </vehicle>
    <vehicle id="50" depart="160.00">
        <route edges="gneE3 gneE6"/>
    </vehicle>
    <vehicle id="51" depart="163.20">
        <route edges="-gneE6 -gneE3"/>
    </vehicle>
    <vehicle id="52" depart="166.40">
        <route edges="gneE2 gneE4"/>
    </vehicle>
    <vehicle id="53" depart="169.60">
        <route edges="-gneE4 gneE6"/>
    </vehicle>
    <vehicle id="54" depart="172.80">
        <route edges="gneE2 gneE6"/>
    </vehicle>
    <vehicle id="55" depart="176.00">
        <route edges="gneE2 gneE4"/>
    </vehicle>
    <vehicle id="56" depart="179.20">
        <route edges="gneE3 gneE6"/>
    </vehicle>
    <vehicle id="57" depart="182.40">
        <route edges="gneE3 gneE4"/>
    </vehicle>
    <vehicle id="58" depart="185.60">
        <route edges="gneE2 gneE4"/>
    </vehicle>
    <vehicle id="59" depart="188.80">
        <route edges="-gneE4 -gneE2"/>
    </vehicle>
    <vehicle id="60" depart="192.00">
        <route edges="gneE3 gneE4"/>
    </vehicle>
    <vehicle id="61" depart="195.20">
        <route edges="gneE3 gneE4"/>
    </vehicle>
    <vehicle id="62" depart="198.40">
        <route edges="-gneE4 -gneE3"/>
    </vehicle>
    <vehicle id="63" depart="201.60">
        <route edges="gneE3 gneE4"/>
    </vehicle>
    <vehicle id="64" depart="204.80">
        <route edges="gneE2 -gneE3"/>
    </vehicle>
    <vehicle id="65" depart="208.00">
        <route edges="-gneE4 -gneE3"/>
    </vehicle>
    <vehicle id="66" depart="211.20">
        <route edges="gneE3 gneE4"/>
    </vehicle>
    <vehicle id="67" depart="214.40">
        <route edges="-gneE6 -gneE2"/>
    </vehicle>
    <vehicle id="68" depart="217.60">
        <route edges="gneE3 gneE6"/>
    </vehicle>
    <vehicle id="69" depart="220.80">
        <route edges="gneE3 gneE4"/>
    </vehicle>
    <vehicle id="70" depart="224.00">
        <route edges="-gneE4 -gneE3"/>
    </vehicle>
    <vehicle id="71" depart="227.20">
        <route edges="-gneE6 gneE4"/>
    </vehicle>
    <vehicle id="72" depart="230.40">
        <route edges="-gneE6 -gneE2"/>
    </vehicle>
    <vehicle id="73" depart="233.60">
        <route edges="gneE3 -gneE2"/>
    </vehicle>
    <vehicle id="74" depart="236.80">
        <route edges="-gneE4 -gneE2"/>
    </vehicle>
    <vehicle id="75" depart="240.00">
        <route edges="-gneE4 -gneE3"/>
    </vehicle>
    <vehicle id="76" depart="243.20">
        <route edges="gneE2 -gneE3"/>
    </vehicle>
    <vehicle id="77" depart="246.40">
        <route edges="-gneE4 gneE6"/>
    </vehicle>
    <vehicle id="78" depart="249.60">
        <route edges="-gneE4 gneE6"/>
    </vehicle>
    <vehicle id="79" depart="252.80">
        <route edges="gneE2 gneE4"/>
    </vehicle>
    <vehicle id="80" depart="256.00">
        <route edges="-gneE6 gneE4"/>
    </vehicle>
    <vehicle id="81" depart="259.20">
        <route edges="gneE3 gneE4"/>
    </vehicle>
    <vehicle id="82" depart="262.40">
        <route edges="gneE3 gneE4"/>
    </vehicle>
    <vehicle id="83" depart="265.60">
        <route edges="gneE2 gneE4"/>
    </vehicle>
    <vehicle id="84" depart="268.80">
        <route edges="gneE2 -gneE3"/>
    </vehicle>
    <vehicle id="85" depart="272.00">
        <route edges="-gneE6 gneE4"/>
    </vehicle>
    <vehicle id="86" depart="275.20">
        <route edges="gneE3 -gneE2"/>
    </vehicle>
    <vehicle id="87" depart="278.40">
        <route edges="-gneE4 -gneE3"/>
    </vehicle>
    <vehicle id="88" depart="281.60">
        <route edges="gneE3 -gneE2"/>
    </vehicle>
    <vehicle id="89" depart="284.80">
        <route edges="gneE3 gneE4"/>
    </vehicle>
    <vehicle id="90" depart="288.00">
        <route edges="gneE3 -gneE2"/>
    </vehicle>
    <vehicle id="91" depart="291.20">
        <route edges="-gneE6 -gneE3"/>
    </vehicle>
    <vehicle id="92" depart="294.40">
        <route edges="gneE3 gneE6"/>
    </vehicle>
    <vehicle id="93" depart="297.60">
        <route edges="gneE2 -gneE3"/>
    </vehicle>
    <vehicle id="94" depart="300.80">
        <route edges="gneE3 gneE4"/>
    </vehicle>
    <vehicle id="95" depart="304.00">
        <route edges="gneE2 -gneE3"/>
    </vehicle>
    <vehicle id="96" depart="307.20">
        <route edges="gneE3 -gneE2"/>
    </vehicle>
    <vehicle id="97" depart="310.40">
        <route edges="gneE2 gneE4"/>
    </vehicle>
    <vehicle id="98" depart="313.60">
        <route edges="-gneE6 -gneE3"/>
    </vehicle>
    <vehicle id="99" depart="316.80">
        <route edges="-gneE6 -gneE2"/>
    </vehicle>
    <vehicle id="100" depart="320.00">
        <route edges="-gneE4 -gneE3"/>
    </vehicle>
    <vehicle id="101" depart="323.20">
        <route edges="-gneE4 gneE6"/>
    </vehicle>
    <vehicle id="102" depart="326.40">
        <route edges="gneE3 -gneE2"/>
    </vehicle>
    <vehicle id="103" depart="329.60">
        <route edges="-gneE4 gneE6"/>
    </vehicle>
    <vehicle id="104" depart="332.80">
        <route edges="gneE2 gneE4"/>
    </vehicle>
    <vehicle id="105" depart="336.00">
        <route edges="-gneE6 gneE4"/>
    </vehicle>
    <vehicle id="106" depart="339.20">
        <route edges="gneE2 gneE6"/>
    </vehicle>
    <vehicle id="107" depart="342.40">
        <route edges="-gneE4 -gneE3"/>
    </vehicle>
    <vehicle id="108" depart="345.60">
        <route edges="gneE3 -gneE2"/>
    </vehicle>
    <vehicle id="109" depart="348.80">
        <route edges="-gneE6 -gneE3"/>
    </vehicle>
    <vehicle id="110" depart="352.00">
        <route edges="-gneE6 -gneE2"/>
    </vehicle>
    <vehicle id="111" depart="355.20">
        <route edges="-gneE6 gneE4"/>
    </vehicle>
    <vehicle id="112" depart="358.40">
        <route edges="gneE2 gneE6"/>
    </vehicle>
    <vehicle id="113" depart="361.60">
        <route edges="-gneE6 -gneE2"/>
    </vehicle>
    <vehicle id="114" depart="364.80">
        <route edges="gneE2 gneE4"/>
    </vehicle>
    <vehicle id="115" depart="368.00">
        <route edges="gneE3 gneE4"/>
    </vehicle>
    <vehicle id="116" depart="371.20">
        <route edges="gneE3 gneE4"/>
    </vehicle>
    <vehicle id="117" depart="374.40">
        <route edges="gneE3 gneE6"/>
    </vehicle>
    <vehicle id="118" depart="377.60">
        <route edges="gneE3 -gneE2"/>
    </vehicle>
    <vehicle id="119" depart="380.80">
        <route edges="-gneE6 -gneE2"/>
    </vehicle>
    <vehicle id="120" depart="384.00">
        <route edges="gneE2 gneE6"/>
    </vehicle>
    <vehicle id="121" depart="387.20">
        <route edges="gneE3 gneE6"/>
    </vehicle>
    <vehicle id="122" depart="390.40">
        <route edges="-gneE4 -gneE2"/>
    </vehicle>
    <vehicle id="123" depart="393.60">
        <route edges="gneE2 gneE6"/>
    </vehicle>
    <vehicle id="124" depart="396.80">
        <route edges="-gneE4 -gneE3"/>
    </vehicle>
    <vehicle id="125" depart="400.00">
        <route edges="-gneE4 -gneE2"/>
    </vehicle>
    <vehicle id="126" depart="403.20">
        <route edges="-gneE6 -gneE2"/>
    </vehicle>
    <vehicle id="127" depart="406.40">
        <route edges="-gneE4 gneE6"/>
    </vehicle>
    <vehicle id="128" depart="409.60">
        <route edges="-gneE4 -gneE3"/>
    </vehicle>
    <vehicle id="129" depart="412.80">
        <route edges="gneE2 gneE4"/>
    </vehicle>
    <vehicle id="130" depart="416.00">
        <route edges="-gneE6 -gneE2"/>
    </vehicle>
    <vehicle id="131" depart="419.20">
        <route edges="-gneE4 gneE6"/>
    </vehicle>
    <vehicle id="132" depart="422.40">
        <route edges="gneE3 gneE4"/>
    </vehicle>
    <vehicle id="133" depart="425.60">
        <route edges="-gneE4 -gneE2"/>
    </vehicle>
    <vehicle id="134" depart="428.80">
        <route edges="-gneE6 gneE4"/>
    </vehicle>
    <vehicle id="135" depart="432.00">
        <route edges="gneE2 -gneE3"/>
    </vehicle>
    <vehicle id="136" depart="435.20">
        <route edges="gneE2 gneE6"/>
    </vehicle>
    <vehicle id="137" depart="438.40">
        <route edges="gneE3 -gneE2"/>
    </vehicle>
    <vehicle id="138" depart="441.60">
        <route edges="-gneE6 gneE4"/>
    </vehicle>
    <vehicle id="139" depart="444.80">
        <route edges="gneE2 gneE6"/>
    </vehicle>
    <vehicle id="140" depart="448.00">
        <route edges="-gneE6 -gneE2"/>
    </vehicle>
    <vehicle id="141" depart="451.20">
        <route edges="-gneE6 -gneE3"/>
    </vehicle>
    <vehicle id="142" depart="454.40">
        <route edges="gneE3 gneE4"/>
    </vehicle>
    <vehicle id="143" depart="457.60">
        <route edges="-gneE6 -gneE3"/>
    </vehicle>
    <vehicle id="144" depart="460.80">
        <route edges="gneE2 gneE6"/>
    </vehicle>
    <vehicle id="145" depart="464.00">
        <route edges="gneE2 gneE6"/>
    </vehicle>
    <vehicle id="146" depart="467.20">
        <route edges="gneE3 -gneE2"/>
    </vehicle>
    <vehicle id="147" depart="470.40">
        <route edges="-gneE6 gneE4"/>
    </vehicle>
    <vehicle id="148" depart="473.60">
        <route edges="-gneE6 -gneE2"/>
    </vehicle>
    <vehicle id="149" depart="476.80">
        <route edges="-gneE4 gneE6"/>
    </vehicle>
    <vehicle id="150" depart="480.00">
        <route edges="gneE3 gneE4"/>
    </vehicle>
    <vehicle id="151" depart="483.20">
        <route edges="gneE3 gneE6"/>
    </vehicle>
    <vehicle id="152" depart="486.40">
        <route edges="gneE3 -gneE2"/>
    </vehicle>
    <vehicle id="153" depart="489.60">
        <route edges="-gneE4 -gneE2"/>
    </vehicle>
    <vehicle id="154" depart="492.80">
        <route edges="-gneE6 -gneE2"/>
    </vehicle>
    <vehicle id="155" depart="496.00">
        <route edges="gneE2 gneE6"/>
    </vehicle>
    <vehicle id="156" depart="499.20">
        <route edges="-gneE4 -gneE2"/>
    </vehicle>
    <vehicle id="157" depart="502.40">
        <route edges="-gneE6 -gneE3"/>
    </vehicle>
    <vehicle id="158" depart="505.60">
        <route edges="gneE3 -gneE2"/>
    </vehicle>
    <vehicle id="159" depart="508.80">
        <route edges="gneE2 -gneE3"/>
    </vehicle>
    <vehicle id="160" depart="512.00">
        <route edges="-gneE6 -gneE3"/>
    </vehicle>
    <vehicle id="161" depart="515.20">
        <route edges="gneE3 -gneE2"/>
    </vehicle>
    <vehicle id="162" depart="518.40">
        <route edges="gneE2 gneE6"/>
    </vehicle>
    <vehicle id="163" depart="521.60">
        <route edges="gneE3 gneE6"/>
    </vehicle>
    <vehicle id="164" depart="524.80">
        <route edges="gneE2 gneE6"/>
    </vehicle>
    <vehicle id="165" depart="528.00">
        <route edges="-gneE4 gneE6"/>
    </vehicle>
    <vehicle id="166" depart="531.20">
        <route edges="gneE2 -gneE3"/>
    </vehicle>
    <vehicle id="167" depart="534.40">
        <route edges="gneE3 gneE6"/>
    </vehicle>
    <vehicle id="168" depart="537.60">
        <route edges="gneE3 -gneE2"/>
    </vehicle>
    <vehicle id="169" depart="540.80">
        <route edges="-gneE6 gneE4"/>
    </vehicle>
    <vehicle id="170" depart="544.00">
        <route edges="gneE2 gneE4"/>
    </vehicle>
    <vehicle id="171" depart="547.20">
        <route edges="gneE3 gneE4"/>
    </vehicle>
    <vehicle id="172" depart="550.40">
        <route edges="gneE2 gneE6"/>
    </vehicle>
    <vehicle id="173" depart="553.60">
        <route edges="gneE2 -gneE3"/>
    </vehicle>
    <vehicle id="174" depart="556.80">
        <route edges="gneE3 gneE6"/>
    </vehicle>
    <vehicle id="175" depart="560.00">
        <route edges="-gneE4 -gneE3"/>
    </vehicle>
    <vehicle id="176" depart="563.20">
        <route edges="gneE2 gneE6"/>
    </vehicle>
    <vehicle id="177" depart="566.40">
        <route edges="gneE3 gneE4"/>
    </vehicle>
    <vehicle id="178" depart="569.60">
        <route edges="-gneE4 -gneE2"/>
    </vehicle>
    <vehicle id="179" depart="572.80">
        <route edges="-gneE6 gneE4"/>
    </vehicle>
    <vehicle id="180" depart="576.00">
        <route edges="-gneE6 -gneE2"/>
    </vehicle>
    <vehicle id="181" depart="579.20">
        <route edges="-gneE6 -gneE3"/>
    </vehicle>
    <vehicle id="182" depart="582.40">
        <route edges="-gneE6 -gneE2"/>
    </vehicle>
    <vehicle id="183" depart="585.60">
        <route edges="-gneE4 -gneE3"/>
    </vehicle>
    <vehicle id="184" depart="588.80">
        <route edges="-gneE6 -gneE2"/>
    </vehicle>
    <vehicle id="185" depart="592.00">
        <route edges="gneE2 gneE4"/>
    </vehicle>
    <vehicle id="186" depart="595.20">
        <route edges="-gneE4 -gneE2"/>
    </vehicle>
    <vehicle id="187" depart="598.40">
        <route edges="gneE3 -gneE2"/>
    </vehicle>
    <vehicle id="188" depart="601.60">
        <route edges="gneE3 gneE6"/>
    </vehicle>
    <vehicle id="189" depart="604.80">
        <route edges="-gneE4 -gneE3"/>
    </vehicle>
    <vehicle id="190" depart="608.00">
        <route edges="gneE3 gneE6"/>
    </vehicle>
    <vehicle id="191" depart="611.20">
        <route edges="-gneE4 gneE6"/>
    </vehicle>
    <vehicle id="192" depart="614.40">
        <route edges="gneE3 gneE4"/>
    </vehicle>
    <vehicle id="193" depart="617.60">
        <route edges="-gneE6 -gneE3"/>
    </vehicle>
    <vehicle id="194" depart="620.80">
        <route edges="-gneE4 -gneE3"/>
    </vehicle>
    <vehicle id="195" depart="624.00">
        <route edges="gneE2 gneE6"/>
    </vehicle>
    <vehicle id="196" depart="627.20">
        <route edges="-gneE6 -gneE3"/>
    </vehicle>
    <vehicle id="197" depart="630.40">
        <route edges="gneE2 -gneE3"/>
    </vehicle>
    <vehicle id="198" depart="633.60">
        <route edges="-gneE4 gneE6"/>
    </vehicle>
    <vehicle id="199" depart="636.80">
        <route edges="gneE2 -gneE3"/>
    </vehicle>
    <vehicle id="200" depart="640.00">
        <route edges="-gneE6 -gneE3"/>
    </vehicle>
    <vehicle id="201" depart="643.20">
        <route edges="gneE2 gneE4"/>
    </vehicle>
    <vehicle id="202" depart="646.40">
        <route edges="gneE2 gneE6"/>
    </vehicle>
    <vehicle id="203" depart="649.60">
        <route edges="-gneE6 -gneE3"/>
    </vehicle>
    <vehicle id="204" depart="652.80">
        <route edges="-gneE6 gneE4"/>
    </vehicle>
    <vehicle id="205" depart="656.00">
        <route edges="gneE3 gneE4"/>
    </vehicle>
    <vehicle id="206" depart="659.20">
        <route edges="gneE2 gneE4"/>
    </vehicle>
    <vehicle id="207" depart="662.40">
        <route edges="-gneE4 -gneE3"/>
    </vehicle>
    <vehicle id="208" depart="665.60">
        <route edges="gneE2 -gneE3"/>
    </vehicle>
    <vehicle id="209" depart="668.80">
        <route edges="-gneE6 -gneE3"/>
    </vehicle>
    <vehicle id="210" depart="672.00">
        <route edges="gneE2 -gneE3"/>
    </vehicle>
    <vehicle id="211" depart="675.20">
        <route edges="-gneE4 gneE6"/>
    </vehicle>
    <vehicle id="212" depart="678.40">
        <route edges="gneE2 gneE6"/>
    </vehicle>
    <vehicle id="213" depart="681.60">
        <route edges="gneE2 -gneE3"/>
    </vehicle>
    <vehicle id="214" depart="684.80">
        <route edges="gneE3 gneE6"/>
    </vehicle>
    <vehicle id="215" depart="688.00">
        <route edges="-gneE4 -gneE2"/>
    </vehicle>
    <vehicle id="216" depart="691.20">
        <route edges="-gneE6 -gneE3"/>
    </vehicle>
    <vehicle id="217" depart="694.40">
        <route edges="gneE2 -gneE3"/>
    </vehicle>
    <vehicle id="218" depart="697.60">
        <route edges="-gneE4 -gneE3"/>
    </vehicle>
    <vehicle id="219" depart="700.80">
        <route edges="gneE3 -gneE2"/>
    </vehicle>
    <vehicle id="220" depart="704.00">
        <route edges="gneE3 gneE4"/>
    </vehicle>
    <vehicle id="221" depart="707.20">
        <route edges="-gneE6 -gneE3"/>
    </vehicle>
    <vehicle id="222" depart="710.40">
        <route edges="gneE3 gneE4"/>
    </vehicle>
    <vehicle id="223" depart="713.60">
        <route edges="-gneE6 -gneE3"/>
    </vehicle>
    <vehicle id="224" depart="716.80">
        <route edges="gneE2 -gneE3"/>
    </vehicle>
    <vehicle id="225" depart="720.00">
        <route edges="gneE3 gneE6"/>
    </vehicle>
    <vehicle id="226" depart="723.20">
        <route edges="-gneE6 gneE4"/>
    </vehicle>
    <vehicle id="227" depart="726.40">
        <route edges="-gneE4 -gneE3"/>
    </vehicle>
    <vehicle id="228" depart="729.60">
        <route edges="gneE3 gneE4"/>
    </vehicle>
    <vehicle id="229" depart="732.80">
        <route edges="-gneE6 gneE4"/>
    </vehicle>
    <vehicle id="230" depart="736.00">
        <route edges="gneE3 gneE4"/>
    </vehicle>
    <vehicle id="231" depart="739.20">
        <route edges="gneE2 -gneE3"/>
    </vehicle>
    <vehicle id="232" depart="742.40">
        <route edges="gneE2 gneE4"/>
    </vehicle>
    <vehicle id="233" depart="745.60">
        <route edges="-gneE6 -gneE3"/>
    </vehicle>
    <vehicle id="234" depart="748.80">
        <route edges="gneE2 -gneE3"/>
    </vehicle>
    <vehicle id="235" depart="752.00">
        <route edges="gneE3 gneE6"/>
    </vehicle>
    <vehicle id="236" depart="755.20">
        <route edges="gneE2 -gneE3"/>
    </vehicle>
    <vehicle id="237" depart="758.40">
        <route edges="-gneE4 -gneE3"/>
    </vehicle>
    <vehicle id="238" depart="761.60">
        <route edges="-gneE4 -gneE2"/>
    </vehicle>
    <vehicle id="239" depart="764.80">
        <route edges="-gneE4 -gneE2"/>
    </vehicle>
    <vehicle id="240" depart="768.00">
        <route edges="-gneE6 gneE4"/>
    </vehicle>
    <vehicle id="241" depart="771.20">
        <route edges="-gneE4 -gneE3"/>
    </vehicle>
    <vehicle id="242" depart="774.40">
        <route edges="gneE2 gneE4"/>
    </vehicle>
    <vehicle id="243" depart="777.60">
        <route edges="gneE3 gneE6"/>
    </vehicle>
    <vehicle id="244" depart="780.80">
        <route edges="gneE3 gneE6"/>
    </vehicle>
    <vehicle id="245" depart="784.00">
        <route edges="gneE2 gneE4"/>
    </vehicle>
    <vehicle id="246" depart="787.20">
        <route edges="gneE3 gneE4"/>
    </vehicle>
    <vehicle id="247" depart="790.40">
        <route edges="-gneE6 -gneE2"/>
    </vehicle>
    <vehicle id="248" depart="793.60">
        <route edges="-gneE4 -gneE3"/>
    </vehicle>
    <vehicle id="249" depart="796.80">
        <route edges="-gneE4 -gneE2"/>
    </vehicle>
    <vehicle id="250" depart="800.00">
        <route edges="-gneE6 -gneE2"/>
    </vehicle>
    <vehicle id="251" depart="803.20">
        <route edges="-gneE6 -gneE2"/>
    </vehicle>
    <vehicle id="252" depart="806.40">
        <route edges="-gneE6 -gneE2"/>
    </vehicle>
    <vehicle id="253" depart="809.60">
        <route edges="-gneE4 -gneE3"/>
    </vehicle>
    <vehicle id="254" depart="812.80">
        <route edges="-gneE4 -gneE3"/>
    </vehicle>
    <vehicle id="255" depart="816.00">
        <route edges="-gneE4 -gneE3"/>
    </vehicle>
    <vehicle id="256" depart="819.20">
        <route edges="-gneE4 -gneE2"/>
    </vehicle>
    <vehicle id="257" depart="822.40">
        <route edges="-gneE6 -gneE2"/>
    </vehicle>
    <vehicle id="258" depart="825.60">
        <route edges="-gneE4 -gneE2"/>
    </vehicle>
    <vehicle id="259" depart="828.80">
        <route edges="gneE3 gneE6"/>
    </vehicle>
    <vehicle id="260" depart="832.00">
        <route edges="gneE3 gneE6"/>
    </vehicle>
    <vehicle id="261" depart="835.20">
        <route edges="-gneE6 -gneE3"/>
    </vehicle>
    <vehicle id="262" depart="838.40">
        <route edges="-gneE6 -gneE3"/>
    </vehicle>
    <vehicle id="263" depart="841.60">
        <route edges="gneE3 gneE6"/>
    </vehicle>
    <vehicle id="264" depart="844.80">
        <route edges="gneE2 gneE6"/>
    </vehicle>
    <vehicle id="265" depart="848.00">
        <route edges="gneE2 gneE6"/>
    </vehicle>
    <vehicle id="266" depart="851.20">
        <route edges="gneE3 gneE4"/>
    </vehicle>
    <vehicle id="267" depart="854.40">
        <route edges="gneE3 gneE6"/>
    </vehicle>
    <vehicle id="268" depart="857.60">
        <route edges="-gneE6 -gneE2"/>
    </vehicle>
    <vehicle id="269" depart="860.80">
        <route edges="gneE3 -gneE2"/>
    </vehicle>
    <vehicle id="270" depart="864.00">
        <route edges="gneE3 -gneE2"/>
    </vehicle>
    <vehicle id="271" depart="867.20">
        <route edges="gneE2 gneE6"/>
    </vehicle>
    <vehicle id="272" depart="870.40">
        <route edges="-gneE6 -gneE3"/>
    </vehicle>
    <vehicle id="273" depart="873.60">
        <route edges="-gneE4 -gneE3"/>
    </vehicle>
    <vehicle id="274" depart="876.80">
        <route edges="-gneE6 -gneE2"/>
    </vehicle>
    <vehicle id="275" depart="880.00">
        <route edges="-gneE6 gneE4"/>
    </vehicle>
    <vehicle id="276" depart="883.20">
        <route edges="gneE3 gneE6"/>
    </vehicle>
    <vehicle id="277" depart="886.40">
        <route edges="gneE3 -gneE2"/>
    </vehicle>
    <vehicle id="278" depart="889.60">
        <route edges="gneE3 gneE6"/>
    </vehicle>
    <vehicle id="279" depart="892.80">
        <route edges="gneE2 -gneE3"/>
    </vehicle>
    <vehicle id="280" depart="896.00">
        <route edges="-gneE6 -gneE3"/>
    </vehicle>
    <vehicle id="281" depart="899.20">
        <route edges="-gneE6 -gneE3"/>
    </vehicle>
    <vehicle id="282" depart="902.40">
        <route edges="-gneE4 -gneE2"/>
    </vehicle>
    <vehicle id="283" depart="905.60">
        <route edges="gneE2 -gneE3"/>
    </vehicle>
    <vehicle id="284" depart="908.80">
        <route edges="gneE2 -gneE3"/>
    </vehicle>
    <vehicle id="285" depart="912.00">
        <route edges="gneE3 gneE4"/>
    </vehicle>
    <vehicle id="286" depart="915.20">
        <route edges="-gneE6 gneE4"/>
    </vehicle>
    <vehicle id="287" depart="918.40">
        <route edges="-gneE6 -gneE3"/>
    </vehicle>
    <vehicle id="288" depart="921.60">
        <route edges="gneE2 -gneE3"/>
    </vehicle>
    <vehicle id="289" depart="924.80">
        <route edges="gneE3 gneE4"/>
    </vehicle>
    <vehicle id="290" depart="928.00">
        <route edges="gneE2 -gneE3"/>
    </vehicle>
    <vehicle id="291" depart="931.20">
        <route edges="gneE3 -gneE2"/>
    </vehicle>
    <vehicle id="292" depart="934.40">
        <route edges="gneE2 -gneE3"/>
    </vehicle>
    <vehicle id="293" depart="937.60">
        <route edges="gneE3 gneE4"/>
    </vehicle>
    <vehicle id="294" depart="940.80">
        <route edges="-gneE6 -gneE2"/>
    </vehicle>
    <vehicle id="295" depart="944.00">
        <route edges="-gneE4 gneE6"/>
    </vehicle>
    <vehicle id="296" depart="947.20">
        <route edges="-gneE4 gneE6"/>
    </vehicle>
    <vehicle id="297" depart="950.40">
        <route edges="-gneE6 gneE4"/>
    </vehicle>
    <vehicle id="298" depart="953.60">
        <route edges="gneE3 gneE4"/>
    </vehicle>
    <vehicle id="299" depart="956.80">
        <route edges="-gneE4 -gneE2"/>
    </vehicle>
    <vehicle id="300" depart="960.00">
        <route edges="gneE3 gneE6"/>
    </vehicle>
    <vehicle id="301" depart="963.20">
        <route edges="gneE3 gneE6"/>
    </vehicle>
    <vehicle id="302" depart="966.40">
        <route edges="-gneE6 gneE4"/>
    </vehicle>
    <vehicle id="303" depart="969.60">
        <route edges="gneE2 gneE4"/>
    </vehicle>
    <vehicle id="304" depart="972.80">
        <route edges="-gneE4 -gneE3"/>
    </vehicle>
    <vehicle id="305" depart="976.00">
        <route edges="gneE3 gneE6"/>
    </vehicle>
    <vehicle id="306" depart="979.20">
        <route edges="gneE3 -gneE2"/>
    </vehicle>
    <vehicle id="307" depart="982.40">
        <route edges="-gneE6 -gneE2"/>
    </vehicle>
    <vehicle id="308" depart="985.60">
        <route edges="-gneE4 -gneE2"/>
    </vehicle>
    <vehicle id="309" depart="988.80">
        <route edges="-gneE6 gneE4"/>
    </vehicle>
    <vehicle id="310" depart="992.00">
        <route edges="gneE3 gneE4"/>
    </vehicle>
    <vehicle id="311" depart="995.20">
        <route edges="-gneE6 -gneE2"/>
    </vehicle>
    <vehicle id="312" depart="998.40">
        <route edges="gneE2 -gneE3"/>
    </vehicle>
    <vehicle id="313" depart="1001.60">
        <route edges="gneE3 -gneE2"/>
    </vehicle>
    <vehicle id="314" depart="1004.80">
        <route edges="-gneE6 -gneE3"/>
    </vehicle>
    <vehicle id="315" depart="1008.00">
        <route edges="-gneE4 -gneE2"/>
    </vehicle>
    <vehicle id="316" depart="1011.20">
        <route edges="-gneE6 -gneE3"/>
    </vehicle>