<?xml version="1.0" encoding="UTF-8"?>

<!-- generated on Sun May  6 21:00:26 2018 by SUMO duarouter Version 0.30.0
<?xml version="1.0" encoding="UTF-8"?>

<configuration xmlns:xsi="http://www.w3.org/2001/XMLSchema-instance" xsi:noNamespaceSchemaLocation="http://sumo.dlr.de/xsd/duarouterConfiguration.xsd">

    <input>
        <net-file value="cross/cross.net.xml"/>
        <route-files value="trips.trips.xml"/>
    </input>

    <output>
        <output-file value="cross/route/cross-2.2-1.rou.xml"/>
    </output>

    <processing>
        <ignore-errors value="true"/>
    </processing>

    <time>
        <begin value="0.0"/>
        <end value="1000.0"/>
    </time>

    <report>
        <no-warnings value="true"/>
        <no-step-log value="true"/>
    </report>

</configuration>
-->

<routes xmlns:xsi="http://www.w3.org/2001/XMLSchema-instance" xsi:noNamespaceSchemaLocation="http://sumo.dlr.de/xsd/routes_file.xsd">
    <vehicle id="0" depart="0.00">
        <route edges="gneE2 gneE6"/>
    </vehicle>
    <vehicle id="1" depart="2.20">
        <route edges="gneE2 -gneE3"/>
    </vehicle>
    <vehicle id="2" depart="4.40">
        <route edges="gneE3 gneE6"/>
    </vehicle>
    <vehicle id="3" depart="6.60">
        <route edges="gneE2 gneE6"/>
    </vehicle>
    <vehicle id="4" depart="8.80">
        <route edges="gneE3 gneE4"/>
    </vehicle>
    <vehicle id="6" depart="13.20">
        <route edges="gneE3 gneE6"/>
    </vehicle>
    <vehicle id="7" depart="15.40">
        <route edges="gneE3 gneE6"/>
    </vehicle>
    <vehicle id="8" depart="17.60">
        <route edges="gneE2 gneE6"/>
    </vehicle>
    <vehicle id="9" depart="19.80">
        <route edges="-gneE6 -gneE3"/>
    </vehicle>
    <vehicle id="10" depart="22.00">
        <route edges="gneE2 gneE4"/>
    </vehicle>
    <vehicle id="11" depart="24.20">
        <route edges="-gneE4 -gneE3"/>
    </vehicle>
    <vehicle id="15" depart="33.00">
        <route edges="gneE3 gneE6"/>
    </vehicle>
    <vehicle id="16" depart="35.20">
        <route edges="-gneE6 -gneE2"/>
    </vehicle>
    <vehicle id="19" depart="41.80">
        <route edges="-gneE4 -gneE3"/>
    </vehicle>
    <vehicle id="20" depart="44.00">
        <route edges="gneE2 gneE6"/>
    </vehicle>
    <vehicle id="21" depart="46.20">
        <route edges="gneE2 gneE4"/>
    </vehicle>
    <vehicle id="22" depart="48.40">
        <route edges="gneE2 gneE6"/>
    </vehicle>
    <vehicle id="24" depart="52.80">
        <route edges="-gneE6 -gneE3"/>
    </vehicle>
    <vehicle id="25" depart="55.00">
        <route edges="-gneE4 -gneE2"/>
    </vehicle>
    <vehicle id="26" depart="57.20">
        <route edges="gneE3 gneE6"/>
    </vehicle>
    <vehicle id="27" depart="59.40">
        <route edges="gneE3 gneE4"/>
    </vehicle>
    <vehicle id="28" depart="61.60">
        <route edges="gneE2 -gneE3"/>
    </vehicle>
    <vehicle id="29" depart="63.80">
        <route edges="-gneE6 gneE4"/>
    </vehicle>
    <vehicle id="31" depart="68.20">
        <route edges="gneE2 -gneE3"/>
    </vehicle>
    <vehicle id="32" depart="70.40">
        <route edges="gneE3 -gneE2"/>
    </vehicle>
    <vehicle id="33" depart="72.60">
        <route edges="gneE3 gneE4"/>
    </vehicle>
    <vehicle id="35" depart="77.00">
        <route edges="-gneE6 -gneE3"/>
    </vehicle>
    <vehicle id="37" depart="81.40">
        <route edges="gneE2 -gneE3"/>
    </vehicle>
    <vehicle id="38" depart="83.60">
        <route edges="gneE3 gneE4"/>
    </vehicle>
    <vehicle id="39" depart="85.80">
        <route edges="gneE2 gneE4"/>
    </vehicle>
    <vehicle id="41" depart="90.20">
        <route edges="-gneE6 -gneE2"/>
    </vehicle>
    <vehicle id="42" depart="92.40">
        <route edges="gneE2 gneE6"/>
    </vehicle>
    <vehicle id="43" depart="94.60">
        <route edges="-gneE4 -gneE2"/>
    </vehicle>
    <vehicle id="44" depart="96.80">
        <route edges="gneE2 gneE4"/>
    </vehicle>
    <vehicle id="47" depart="103.40">
        <route edges="gneE3 gneE4"/>
    </vehicle>
    <vehicle id="48" depart="105.60">
        <route edges="gneE2 gneE4"/>
    </vehicle>
    <vehicle id="51" depart="112.20">
        <route edges="-gneE6 -gneE2"/>
    </vehicle>
    <vehicle id="53" depart="116.60">
        <route edges="gneE2 -gneE3"/>
    </vehicle>
    <vehicle id="55" depart="121.00">
        <route edges="gneE2 gneE4"/>
    </vehicle>
    <vehicle id="56" depart="123.20">
        <route edges="gneE2 gneE4"/>
    </vehicle>
    <vehicle id="57" depart="125.40">
        <route edges="-gneE6 gneE4"/>
    </vehicle>
    <vehicle id="58" depart="127.60">
        <route edges="gneE3 -gneE2"/>
    </vehicle>
    <vehicle id="59" depart="129.80">
        <route edges="-gneE6 -gneE3"/>
    </vehicle>
    <vehicle id="60" depart="132.00">
        <route edges="-gneE6 gneE4"/>
    </vehicle>
    <vehicle id="61" depart="134.20">
        <route edges="gneE3 -gneE2"/>
    </vehicle>
    <vehicle id="64" depart="140.80">
        <route edges="gneE2 gneE6"/>
    </vehicle>
    <vehicle id="65" depart="143.00">
        <route edges="-gneE6 -gneE3"/>
    </vehicle>
    <vehicle id="66" depart="145.20">
        <route edges="gneE2 gneE6"/>
    </vehicle>
    <vehicle id="67" depart="147.40">
        <route edges="-gneE6 -gneE3"/>
    </vehicle>
    <vehicle id="68" depart="149.60">
        <route edges="-gneE4 gneE6"/>
    </vehicle>
    <vehicle id="70" depart="154.00">
        <route edges="-gneE4 gneE6"/>
    </vehicle>
    <vehicle id="72" depart="158.40">
        <route edges="-gneE4 -gneE3"/>
    </vehicle>
    <vehicle id="76" depart="167.20">
        <route edges="-gneE4 -gneE3"/>
    </vehicle>
    <vehicle id="77" depart="169.40">
        <route edges="-gneE6 -gneE3"/>
    </vehicle>
    <vehicle id="78" depart="171.60">
        <route edges="-gneE4 -gneE2"/>
    </vehicle>
    <vehicle id="80" depart="176.00">
        <route edges="gneE3 gneE4"/>
    </vehicle>
    <vehicle id="81" depart="178.20">
        <route edges="gneE3 gneE6"/>
    </vehicle>
    <vehicle id="82" depart="180.40">
        <route edges="gneE2 gneE6"/>
    </vehicle>
    <vehicle id="83" depart="182.60">
        <route edges="-gneE4 -gneE3"/>
    </vehicle>
    <vehicle id="84" depart="184.80">
        <route edges="gneE2 gneE6"/>
    </vehicle>
    <vehicle id="85" depart="187.00">
        <route edges="-gneE4 gneE6"/>
    </vehicle>
    <vehicle id="86" depart="189.20">
        <route edges="-gneE4 -gneE3"/>
    </vehicle>
    <vehicle id="88" depart="193.60">
        <route edges="-gneE4 gneE6"/>
    </vehicle>
    <vehicle id="89" depart="195.80">
        <route edges="gneE2 gneE4"/>
    </vehicle>
    <vehicle id="90" depart="198.00">
        <route edges="gneE3 -gneE2"/>
    </vehicle>
    <vehicle id="93" depart="204.60">
        <route edges="-gneE6 gneE4"/>
    </vehicle>
    <vehicle id="96" depart="211.20">
        <route edges="-gneE4 gneE6"/>
    </vehicle>
    <vehicle id="97" depart="213.40">
        <route edges="gneE2 gneE6"/>
    </vehicle>
    <vehicle id="98" depart="215.60">
        <route edges="gneE2 -gneE3"/>
    </vehicle>
    <vehicle id="99" depart="217.80">
        <route edges="gneE3 gneE4"/>
    </vehicle>
    <vehicle id="100" depart="220.00">
        <route edges="-gneE6 -gneE2"/>
    </vehicle>
    <vehicle id="102" depart="224.40">
        <route edges="gneE3 gneE4"/>
    </vehicle>
    <vehicle id="103" depart="226.60">
        <route edges="-gneE6 gneE4"/>
    </vehicle>
    <vehicle id="104" depart="228.80">
        <route edges="gneE3 gneE6"/>
    </vehicle>
    <vehicle id="107" depart="235.40">
        <route edges="-gneE4 gneE6"/>
    </vehicle>
    <vehicle id="108" depart="237.60">
        <route edges="gneE3 -gneE2"/>
    </vehicle>
    <vehicle id="109" depart="239.80">
        <route edges="gneE2 gneE4"/>
    </vehicle>
    <vehicle id="110" depart="242.00">
        <route edges="gneE3 gneE4"/>
    </vehicle>
    <vehicle id="111" depart="244.20">
        <route edges="-gneE4 -gneE3"/>
    </vehicle>
    <vehicle id="112" depart="246.40">
        <route edges="-gneE4 -gneE3"/>
    </vehicle>
    <vehicle id="114" depart="250.80">
        <route edges="gneE3 gneE6"/>
    </vehicle>
    <vehicle id="116" depart="255.20">
        <route edges="gneE2 gneE4"/>
    </vehicle>
    <vehicle id="117" depart="257.40">
        <route edges="-gneE4 gneE6"/>
    </vehicle>
    <vehicle id="118" depart="259.60">
        <route edges="gneE3 gneE4"/>
    </vehicle>
    <vehicle id="119" depart="261.80">
        <route edges="gneE3 gneE4"/>
    </vehicle>
    <vehicle id="120" depart="264.00">
        <route edges="gneE2 gneE6"/>
    </vehicle>
    <vehicle id="122" depart="268.40">
        <route edges="gneE2 gneE6"/>
    </vehicle>
    <vehicle id="123" depart="270.60">
        <route edges="-gneE4 -gneE3"/>
    </vehicle>
    <vehicle id="124" depart="272.80">
        <route edges="-gneE6 gneE4"/>
    </vehicle>
    <vehicle id="125" depart="275.00">
        <route edges="gneE2 gneE4"/>
    </vehicle>
    <vehicle id="126" depart="277.20">
        <route edges="-gneE6 -gneE2"/>
    </vehicle>
    <vehicle id="127" depart="279.40">
        <route edges="gneE3 -gneE2"/>
    </vehicle>
    <vehicle id="128" depart="281.60">
        <route edges="-gneE4 -gneE3"/>
    </vehicle>
    <vehicle id="129" depart="283.80">
        <route edges="-gneE6 -gneE3"/>
    </vehicle>
    <vehicle id="130" depart="286.00">
        <route edges="gneE3 gneE4"/>
    </vehicle>
    <vehicle id="131" depart="288.20">
        <route edges="gneE2 gneE6"/>
    </vehicle>
    <vehicle id="133" depart="292.60">
        <route edges="gneE2 gneE6"/>
    </vehicle>
    <vehicle id="135" depart="297.00">
        <route edges="-gneE6 -gneE3"/>
    </vehicle>
    <vehicle id="136" depart="299.20">
        <route edges="-gneE4 gneE6"/>
    </vehicle>
    <vehicle id="137" depart="301.40">
        <route edges="-gneE4 gneE6"/>
    </vehicle>
    <vehicle id="138" depart="303.60">
        <route edges="gneE2 gneE4"/>
    </vehicle>
    <vehicle id="140" depart="308.00">
        <route edges="-gneE6 gneE4"/>
    </vehicle>
    <vehicle id="141" depart="310.20">
        <route edges="gneE3 -gneE2"/>
    </vehicle>
    <vehicle id="144" depart="316.80">
        <route edges="-gneE4 gneE6"/>
    </vehicle>
    <vehicle id="145" depart="319.00">
        <route edges="gneE3 gneE4"/>
    </vehicle>
    <vehicle id="147" depart="323.40">
        <route edges="gneE2 gneE4"/>
    </vehicle>
    <vehicle id="149" depart="327.80">
        <route edges="gneE3 gneE6"/>
    </vehicle>
    <vehicle id="150" depart="330.00">
        <route edges="gneE2 gneE6"/>
    </vehicle>
    <vehicle id="152" depart="334.40">
        <route edges="gneE3 -gneE2"/>
    </vehicle>
    <vehicle id="153" depart="336.60">
        <route edges="gneE2 gneE4"/>
    </vehicle>
    <vehicle id="156" depart="343.20">
        <route edges="gneE3 -gneE2"/>
    </vehicle>
    <vehicle id="157" depart="345.40">
        <route edges="-gneE6 -gneE2"/>
    </vehicle>
    <vehicle id="159" depart="349.80">
        <route edges="gneE2 gneE4"/>
    </vehicle>
    <vehicle id="160" depart="352.00">
        <route edges="-gneE4 gneE6"/>
    </vehicle>
    <vehicle id="161" depart="354.20">
        <route edges="gneE3 gneE6"/>
    </vehicle>
    <vehicle id="162" depart="356.40">
        <route edges="gneE2 gneE6"/>
    </vehicle>
    <vehicle id="163" depart="358.60">
        <route edges="-gneE4 gneE6"/>
    </vehicle>
    <vehicle id="165" depart="363.00">
        <route edges="-gneE6 -gneE3"/>
    </vehicle>
    <vehicle id="166" depart="365.20">
        <route edges="gneE2 gneE6"/>
    </vehicle>
    <vehicle id="167" depart="367.40">
        <route edges="gneE3 gneE6"/>
    </vehicle>
    <vehicle id="168" depart="369.60">
        <route edges="gneE3 -gneE2"/>
    </vehicle>
    <vehicle id="169" depart="371.80">
        <route edges="gneE2 gneE4"/>
    </vehicle>
    <vehicle id="170" depart="374.00">
        <route edges="-gneE4 -gneE3"/>
    </vehicle>
    <vehicle id="171" depart="376.20">
        <route edges="gneE3 gneE4"/>
    </vehicle>
    <vehicle id="173" depart="380.60">
        <route edges="gneE3 -gneE2"/>
    </vehicle>
    <vehicle id="174" depart="382.80">
        <route edges="-gneE6 gneE4"/>
    </vehicle>
    <vehicle id="176" depart="387.20">
        <route edges="gneE2 gneE6"/>
    </vehicle>
    <vehicle id="178" depart="391.60">
        <route edges="-gneE6 -gneE3"/>
    </vehicle>
    <vehicle id="179" depart="393.80">
        <route edges="-gneE4 gneE6"/>
    </vehicle>
    <vehicle id="180" depart="396.00">
        <route edges="gneE2 gneE4"/>
    </vehicle>
    <vehicle id="181" depart="398.20">
        <route edges="-gneE4 -gneE3"/>
    </vehicle>
    <vehicle id="182" depart="400.40">
        <route edges="-gneE4 gneE6"/>
    </vehicle>
    <vehicle id="185" depart="407.00">
        <route edges="gneE3 -gneE2"/>
    </vehicle>
    <vehicle id="186" depart="409.20">
        <route edges="gneE3 gneE4"/>
    </vehicle>
    <vehicle id="187" depart="411.40">
        <route edges="-gneE6 -gneE3"/>
    </vehicle>
    <vehicle id="188" depart="413.60">
        <route edges="-gneE4 -gneE3"/>
    </vehicle>
    <vehicle id="189" depart="415.80">
        <route edges="-gneE6 -gneE3"/>
    </vehicle>
    <vehicle id="190" depart="418.00">
        <route edges="gneE2 gneE4"/>
    </vehicle>
    <vehicle id="191" depart="420.20">
        <route edges="gneE3 gneE6"/>
    </vehicle>
    <vehicle id="192" depart="422.40">
        <route edges="-gneE4 -gneE3"/>
    </vehicle>
    <vehicle id="193" depart="424.60">
        <route edges="gneE2 gneE6"/>
    </vehicle>
    <vehicle id="194" depart="426.80">
        <route edges="gneE2 -gneE3"/>
    </vehicle>
    <vehicle id="196" depart="431.20">
        <route edges="gneE3 -gneE2"/>
    </vehicle>
    <vehicle id="197" depart="433.40">
        <route edges="gneE2 -gneE3"/>
    </vehicle>
    <vehicle id="199" depart="437.80">
        <route edges="gneE3 gneE4"/>
    </vehicle>
    <vehicle id="200" depart="440.00">
        <route edges="gneE2 -gneE3"/>
    </vehicle>
    <vehicle id="201" depart="442.20">
        <route edges="gneE3 gneE6"/>
    </vehicle>
    <vehicle id="202" depart="444.40">
        <route edges="gneE2 -gneE3"/>
    </vehicle>
    <vehicle id="204" depart="448.80">
        <route edges="-gneE6 gneE4"/>
    </vehicle>
    <vehicle id="205" depart="451.00">
        <route edges="gneE3 -gneE2"/>
    </vehicle>
    <vehicle id="206" depart="453.20">
        <route edges="-gneE4 gneE6"/>
    </vehicle>
    <vehicle id="207" depart="455.40">
        <route edges="-gneE6 -gneE2"/>
    </vehicle>
    <vehicle id="208" depart="457.60">
        <route edges="-gneE6 -gneE3"/>
    </vehicle>
    <vehicle id="210" depart="462.00">
        <route edges="-gneE4 -gneE2"/>
    </vehicle>
    <vehicle id="211" depart="464.20">
        <route edges="gneE2 gneE6"/>
    </vehicle>
    <vehicle id="212" depart="466.40">
        <route edges="-gneE6 gneE4"/>
    </vehicle>
    <vehicle id="213" depart="468.60">
        <route edges="-gneE6 gneE4"/>
    </vehicle>
    <vehicle id="214" depart="470.80">
        <route edges="gneE3 -gneE2"/>
    </vehicle>
    <vehicle id="216" depart="475.20">
        <route edges="gneE2 gneE6"/>
    </vehicle>
    <vehicle id="217" depart="477.40">
        <route edges="-gneE6 gneE4"/>
    </vehicle>
    <vehicle id="219" depart="481.80">
        <route edges="gneE2 gneE6"/>
    </vehicle>
    <vehicle id="220" depart="484.00">
        <route edges="gneE3 -gneE2"/>
    </vehicle>
    <vehicle id="221" depart="486.20">
        <route edges="gneE3 -gneE2"/>
    </vehicle>
    <vehicle id="223" depart="490.60">
        <route edges="-gneE4 -gneE3"/>
    </vehicle>
    <vehicle id="225" depart="495.00">
        <route edges="gneE2 gneE6"/>
    </vehicle>
    <vehicle id="228" depart="501.60">
        <route edges="gneE3 -gneE2"/>
    </vehicle>
    <vehicle id="229" depart="503.80">
        <route edges="-gneE6 gneE4"/>
    </vehicle>
    <vehicle id="230" depart="506.00">
        <route edges="gneE3 -gneE2"/>
    </vehicle>
    <vehicle id="232" depart="510.40">
        <route edges="gneE2 gneE4"/>
    </vehicle>
    <vehicle id="233" depart="512.60">
        <route edges="-gneE6 -gneE2"/>
    </vehicle>
    <vehicle id="237" depart="521.40">
        <route edges="gneE2 gneE6"/>
    </vehicle>
    <vehicle id="240" depart="528.00">
        <route edges="gneE2 -gneE3"/>
    </vehicle>
    <vehicle id="242" depart="532.40">
        <route edges="-gneE4 -gneE3"/>
    </vehicle>
    <vehicle id="243" depart="534.60">
        <route edges="-gneE4 gneE6"/>
    </vehicle>
    <vehicle id="244" depart="536.80">
        <route edges="gneE2 gneE4"/>
    </vehicle>
    <vehicle id="245" depart="539.00">
        <route edges="-gneE4 -gneE2"/>
    </vehicle>
    <vehicle id="247" depart="543.40">
        <route edges="gneE2 gneE6"/>
    </vehicle>
    <vehicle id="250" depart="550.00">
        <route edges="-gneE4 -gneE3"/>
    </vehicle>
    <vehicle id="251" depart="552.20">
        <route edges="-gneE4 gneE6"/>
    </vehicle>
    <vehicle id="252" depart="554.40">
        <route edges="gneE3 gneE6"/>
    </vehicle>
    <vehicle id="254" depart="558.80">
        <route edges="-gneE6 gneE4"/>
    </vehicle>
    <vehicle id="256" depart="563.20">
        <route edges="-gneE4 -gneE3"/>
    </vehicle>
    <vehicle id="257" depart="565.40">
        <route edges="-gneE4 -gneE2"/>
    </vehicle>
    <vehicle id="259" depart="569.80">
        <route edges="gneE3 -gneE2"/>
    </vehicle>
    <vehicle id="261" depart="574.20">
        <route edges="gneE2 -gneE3"/>
    </vehicle>
    <vehicle id="262" depart="576.40">
        <route edges="gneE2 -gneE3"/>
    </vehicle>
    <vehicle id="263" depart="578.60">
        <route edges="-gneE6 -gneE2"/>
    </vehicle>
    <vehicle id="264" depart="580.80">
        <route edges="gneE3 gneE4"/>
    </vehicle>
    <vehicle id="265" depart="583.00">
        <route edges="-gneE4 -gneE3"/>
    </vehicle>
    <vehicle id="266" depart="585.20">
        <route edges="gneE3 gneE4"/>
    </vehicle>
    <vehicle id="268" depart="589.60">
        <route edges="gneE3 gneE6"/>
    </vehicle>
    <vehicle id="271" depart="596.20">
        <route edges="gneE3 gneE4"/>
    </vehicle>
    <vehicle id="274" depart="602.80">
        <route edges="gneE3 -gneE2"/>
    </vehicle>
    <vehicle id="275" depart="605.00">
        <route edges="gneE2 gneE4"/>
    </vehicle>
    <vehicle id="276" depart="607.20">
        <route edges="-gneE6 -gneE2"/>
    </vehicle>
    <vehicle id="277" depart="609.40">
        <route edges="-gneE4 -gneE3"/>
    </vehicle>
    <vehicle id="278" depart="611.60">
        <route edges="gneE3 -gneE2"/>
    </vehicle>
    <vehicle id="280" depart="616.00">
        <route edges="-gneE4 -gneE2"/>
    </vehicle>
    <vehicle id="282" depart="620.40">
        <route edges="gneE3 gneE4"/>
    </vehicle>
    <vehicle id="283" depart="622.60">
        <route edges="gneE2 -gneE3"/>
    </vehicle>
    <vehicle id="284" depart="624.80">
        <route edges="-gneE6 gneE4"/>
    </vehicle>
    <vehicle id="285" depart="627.00">
        <route edges="gneE2 gneE6"/>
    </vehicle>
    <vehicle id="287" depart="631.40">
        <route edges="-gneE4 -gneE2"/>
    </vehicle>
    <vehicle id="288" depart="633.60">
        <route edges="gneE3 gneE6"/>
    </vehicle>
    <vehicle id="289" depart="635.80">
        <route edges="-gneE6 -gneE3"/>
    </vehicle>
    <vehicle id="291" depart="640.20">
        <route edges="gneE2 gneE4"/>
    </vehicle>
    <vehicle id="293" depart="644.60">
        <route edges="gneE3 -gneE2"/>
    </vehicle>
    <vehicle id="294" depart="646.80">
        <route edges="-gneE4 -gneE2"/>
    </vehicle>
    <vehicle id="295" depart="649.00">
        <route edges="-gneE6 -gneE3"/>
    </vehicle>
    <vehicle id="296" depart="651.20">
        <route edges="-gneE4 -gneE3"/>
    </vehicle>
    <vehicle id="298" depart="655.60">
        <route edges="-gneE6 gneE4"/>
    </vehicle>
    <vehicle id="300" depart="660.00">
        <route edges="-gneE6 gneE4"/>
    </vehicle>
    <vehicle id="301" depart="662.20">
        <route edges="-gneE4 -gneE3"/>
    </vehicle>
    <vehicle id="302" depart="664.40">
        <route edges="gneE2 gneE6"/>
    </vehicle>
    <vehicle id="303" depart="666.60">
        <route edges="-gneE4 -gneE3"/>
    </vehicle>
    <vehicle id="304" depart="668.80">
        <route edges="gneE2 -gneE3"/>
    </vehicle>
    <vehicle id="305" depart="671.00">
        <route edges="-gneE4 -gneE2"/>
    </vehicle>
    <vehicle id="307" depart="675.40">
        <route edges="gneE3 gneE4"/>
    </vehicle>
    <vehicle id="308" depart="677.60">
        <route edges="-gneE4 -gneE2"/>
    </vehicle>
    <vehicle id="309" depart="679.80">
        <route edges="gneE2 gneE6"/>
    </vehicle>
    <vehicle id="310" depart="682.00">
        <route edges="-gneE6 gneE4"/>
    </vehicle>
    <vehicle id="311" depart="684.20">
        <route edges="gneE2 -gneE3"/>
    </vehicle>
    <vehicle id="312" depart="686.40">
        <route edges="gneE3 gneE6"/>
    </vehicle>
    <vehicle id="313" depart="688.60">
        <route edges="gneE3 gneE4"/>
    </vehicle>
    <vehicle id="316" depart="695.20">
        <route edges="gneE3 gneE6"/>
    </vehicle>
    <vehicle id="317" depart="697.40">
        <route edges="-gneE4 gneE6"/>
    </vehicle>
    <vehicle id="318" depart="699.60">
        <route edges="-gneE6 -gneE3"/>
    </vehicle>
    <vehicle id="320" depart="704.00">
        <route edges="gneE3 gneE6"/>
    </vehicle>
    <vehicle id="321" depart="706.20">
        <route edges="gneE3 gneE4"/>
    </vehicle>
    <vehicle id="322" depart="708.40">
        <route edges="gneE3 -gneE2"/>
    </vehicle>
    <vehicle id="323" depart="710.60">
        <route edges="gneE2 gneE6"/>
    </vehicle>
    <vehicle id="324" depart="712.80">
        <route edges="-gneE4 -gneE2"/>
    </vehicle>
    <vehicle id="325" depart="715.00">
        <route edges="-gneE4 -gneE2"/>
    </vehicle>
    <vehicle id="326" depart="717.20">
        <route edges="gneE3 gneE4"/>
    </vehicle>
    <vehicle id="330" depart="726.00">
        <route edges="-gneE6 gneE4"/>
    </vehicle>
    <vehicle id="331" depart="728.20">
        <route edges="-gneE6 gneE4"/>
    </vehicle>
    <vehicle id="332" depart="730.40">
        <route edges="gneE2 gneE4"/>
    </vehicle>
    <vehicle id="334" depart="734.80">
        <route edges="gneE3 -gneE2"/>
    </vehicle>
    <vehicle id="335" depart="737.00">
        <route edges="-gneE6 gneE4"/>
    </vehicle>
    <vehicle id="336" depart="739.20">
        <route edges="-gneE6 -gneE2"/>
    </vehicle>
    <vehicle id="337" depart="741.40">
        <route edges="gneE2 gneE6"/>
    </vehicle>
    <vehicle id="339" depart="745.80">
        <route edges="gneE2 gneE6"/>
    </vehicle>
    <vehicle id="342" depart="752.40">
        <route edges="gneE2 -gneE3"/>
    </vehicle>
    <vehicle id="344" depart="756.80">
        <route edges="-gneE6 -gneE2"/>
    </vehicle>
    <vehicle id="345" depart="759.00">
        <route edges="gneE3 -gneE2"/>
    </vehicle>
    <vehicle id="348" depart="765.60">
        <route edges="-gneE4 gneE6"/>
    </vehicle>
    <vehicle id="349" depart="767.80">
        <route edges="gneE3 gneE4"/>
    </vehicle>
    <vehicle id="350" depart="770.00">
        <route edges="-gneE6 -gneE2"/>
    </vehicle>
    <vehicle id="353" depart="776.60">
        <route edges="-gneE6 -gneE3"/>
    </vehicle>
    <vehicle id="356" depart="783.20">
        <route edges="-gneE4 -gneE3"/>
    </vehicle>
    <vehicle id="358" depart="787.60">
        <route edges="gneE2 -gneE3"/>
    </vehicle>
    <vehicle id="359" depart="789.80">
        <route edges="gneE3 gneE6"/>
    </vehicle>
    <vehicle id="360" depart="792.00">
        <route edges="gneE2 gneE4"/>
    </vehicle>
    <vehicle id="361" depart="794.20">
        <route edges="gneE3 gneE4"/>
    </vehicle>
    <vehicle id="362" depart="796.40">
        <route edges="-gneE4 gneE6"/>
    </vehicle>
    <vehicle id="363" depart="798.60">
        <route edges="-gneE6 gneE4"/>
    </vehicle>
    <vehicle id="364" depart="800.80">
        <route edges="gneE3 gneE4"/>
    </vehicle>
    <vehicle id="365" depart="803.00">
        <route edges="gneE2 gneE6"/>
    </vehicle>
    <vehicle id="366" depart="805.20">
        <route edges="gneE3 gneE4"/>
    </vehicle>
    <vehicle id="368" depart="809.60">
        <route edges="-gneE6 -gneE3"/>
    </vehicle>
    <vehicle id="369" depart="811.80">
        <route edges="gneE3 gneE6"/>
    </vehicle>
    <vehicle id="370" depart="814.00">
        <route edges="gneE2 gneE4"/>
    </vehicle>
    <vehicle id="371" depart="816.20">
        <route edges="-gneE4 -gneE2"/>
    </vehicle>
    <vehicle id="372" depart="818.40">
        <route edges="gneE2 gneE6"/>
    </vehicle>
    <vehicle id="373" depart="820.60">
        <route edges="-gneE4 -gneE2"/>
    </vehicle>
    <vehicle id="375" depart="825.00">
        <route edges="-gneE6 gneE4"/>
    </vehicle>
    <vehicle id="376" depart="827.20">
        <route edges="-gneE4 gneE6"/>
    </vehicle>
    <vehicle id="377" depart="829.40">
        <route edges="-gneE6 -gneE3"/>
    </vehicle>
    <vehicle id="379" depart="833.80">
        <route edges="-gneE6 -gneE2"/>
    </vehicle>
    <vehicle id="382" depart="840.40">
        <route edges="-gneE4 -gneE2"/>
    </vehicle>
    <vehicle id="384" depart="844.80">
        <route edges="-gneE4 -gneE3"/>
    </vehicle>
    <vehicle id="385" depart="847.00">
        <route edges="gneE3 -gneE2"/>
    </vehicle>
    <vehicle id="386" depart="849.20">
        <route edges="-gneE6 gneE4"/>
    </vehicle>
    <vehicle id="387" depart="851.40">
        <route edges="gneE3 -gneE2"/>
    </vehicle>
    <vehicle id="388" depart="853.60">
        <route edges="-gneE6 gneE4"/>
    </vehicle>
    <vehicle id="389" depart="855.80">
        <route edges="-gneE4 -gneE2"/>
    </vehicle>
    <vehicle id="390" depart="858.00">
        <route edges="-gneE6 gneE4"/>
    </vehicle>
    <vehicle id="391" depart="860.20">
        <route edges="gneE3 gneE6"/>
    </vehicle>
    <vehicle id="392" depart="862.40">
        <route edges="gneE3 -gneE2"/>
    </vehicle>
    <vehicle id="393" depart="864.60">
        <route edges="-gneE6 -gneE2"/>
    </vehicle>
    <vehicle id="395" depart="869.00">
        <route edges="-gneE4 -gneE2"/>
    </vehicle>
    <vehicle id="396" depart="871.20">
        <route edges="-gneE4 -gneE2"/>
    </vehicle>
    <vehicle id="397" depart="873.40">
        <route edges="gneE2 gneE4"/>
    </vehicle>
    <vehicle id="398" depart="875.60">
        <route edges="gneE2 -gneE3"/>
    </vehicle>
    <vehicle id="399" depart="877.80">
        <route edges="-gneE4 -gneE2"/>
    </vehicle>
    <vehicle id="400" depart="880.00">
        <route edges="gneE3 gneE6"/>
    </vehicle>
    <vehicle id="401" depart="882.20">
        <route edges="gneE3 gneE6"/>
    </vehicle>
    <vehicle id="402" depart="884.40">
        <route edges="-gneE6 -gneE2"/>
    </vehicle>
    <vehicle id="403" depart="886.60">
        <route edges="gneE3 gneE4"/>
    </vehicle>
    <vehicle id="404" depart="888.80">
        <route edges="-gneE4 gneE6"/>
    </vehicle>
    <vehicle id="406" depart="893.20">
        <route edges="gneE2 gneE4"/>
    </vehicle>
    <vehicle id="407" depart="895.40">
        <route edges="-gneE4 -gneE3"/>
    </vehicle>
    <vehicle id="408" depart="897.60">
        <route edges="-gneE4 -gneE3"/>
    </vehicle>
    <vehicle id="410" depart="902.00">
        <route edges="gneE3 gneE4"/>
    </vehicle>
    <vehicle id="411" depart="904.20">
        <route edges="gneE2 -gneE3"/>
    </vehicle>
    <vehicle id="412" depart="906.40">
        <route edges="-gneE6 -gneE3"/>
    </vehicle>
    <vehicle id="413" depart="908.60">
        <route edges="gneE3 gneE4"/>
    </vehicle>
    <vehicle id="414" depart="910.80">
        <route edges="-gneE6 gneE4"/>
    </vehicle>
    <vehicle id="419" depart="921.80">
        <route edges="gneE2 gneE4"/>
    </vehicle>
    <vehicle id="420" depart="924.00">
        <route edges="-gneE4 -gneE3"/>
    </vehicle>
    <vehicle id="421" depart="926.20">
        <route edges="gneE3 gneE6"/>
    </vehicle>
    <vehicle id="423" depart="930.60">
        <route edges="gneE2 -gneE3"/>
    </vehicle>
    <vehicle id="424" depart="932.80">
        <route edges="-gneE6 -gneE2"/>
    </vehicle>
    <vehicle id="425" depart="935.00">
        <route edges="gneE3 gneE4"/>
    </vehicle>
    <vehicle id="427" depart="939.40">
        <route edges="gneE2 gneE6"/>
    </vehicle>
    <vehicle id="428" depart="941.60">
        <route edges="-gneE6 gneE4"/>
    </vehicle>
    <vehicle id="429" depart="943.80">
        <route edges="-gneE6 gneE4"/>
    </vehicle>
    <vehicle id="431" depart="948.20">
        <route edges="-gneE6 -gneE3"/>
    </vehicle>
    <vehicle id="432" depart="950.40">
        <route edges="-gneE6 -gneE2"/>
    </vehicle>
    <vehicle id="433" depart="952.60">
        <route edges="-gneE6 -gneE3"/>
    </vehicle>
    <vehicle id="434" depart="954.80">
        <route edges="gneE2 gneE6"/>
    </vehicle>
    <vehicle id="435" depart="957.00">
        <route edges="-gneE6 gneE4"/>
    </vehicle>
    <vehicle id="437" depart="961.40">
        <route edges="gneE3 gneE4"/>
    </vehicle>
    <vehicle id="439" depart="965.80">
        <route edges="-gneE4 -gneE3"/>
    </vehicle>
    <vehicle id="440" depart="968.00">
        <route edges="gneE2 gneE6"/>
    </vehicle>
    <vehicle id="441" depart="970.20">
        <route edges="-gneE4 gneE6"/>
    </vehicle>
    <vehicle id="442" depart="972.40">
        <route edges="-gneE4 -gneE2"/>
    </vehicle>
    <vehicle id="443" depart="974.60">