<?xml version="1.0" encoding="UTF-8"?>

<!-- generated on Sun May  6 19:50:51 2018 by SUMO duarouter Version 0.30.0
<?xml version="1.0" encoding="UTF-8"?>

<configuration xmlns:xsi="http://www.w3.org/2001/XMLSchema-instance" xsi:noNamespaceSchemaLocation="http://sumo.dlr.de/xsd/duarouterConfiguration.xsd">

    <input>
        <net-file value="cross/cross.net.xml"/>
        <route-files value="trips.trips.xml"/>
    </input>

    <output>
        <output-file value="cross/route/cross-2.0-1.rou.xml"/>
    </output>

    <processing>
        <ignore-errors value="true"/>
    </processing>

    <time>
        <begin value="0.0"/>
        <end value="1000.0"/>
    </time>

    <report>
        <no-warnings value="true"/>
        <no-step-log value="true"/>
    </report>

</configuration>
-->

<routes xmlns:xsi="http://www.w3.org/2001/XMLSchema-instance" xsi:noNamespaceSchemaLocation="http://sumo.dlr.de/xsd/routes_file.xsd">
    <vehicle id="0" depart="0.00">
        <route edges="-gneE6 -gneE2"/>
    </vehicle>
    <vehicle id="4" depart="8.00">
        <route edges="-gneE4 gneE6"/>
    </vehicle>
    <vehicle id="5" depart="10.00">
        <route edges="gneE3 gneE6"/>
    </vehicle>
    <vehicle id="6" depart="12.00">
        <route edges="-gneE6 gneE4"/>
    </vehicle>
    <vehicle id="7" depart="14.00">
        <route edges="-gneE4 -gneE3"/>
    </vehicle>
    <vehicle id="8" depart="16.00">
        <route edges="-gneE4 gneE6"/>
    </vehicle>
    <vehicle id="9" depart="18.00">
        <route edges="gneE3 gneE6"/>
    </vehicle>
    <vehicle id="10" depart="20.00">
        <route edges="gneE3 gneE4"/>
    </vehicle>
    <vehicle id="12" depart="24.00">
        <route edges="-gneE4 gneE6"/>
    </vehicle>
    <vehicle id="13" depart="26.00">
        <route edges="-gneE4 -gneE3"/>
    </vehicle>
    <vehicle id="14" depart="28.00">
        <route edges="gneE3 gneE4"/>
    </vehicle>
    <vehicle id="16" depart="32.00">
        <route edges="gneE3 gneE4"/>
    </vehicle>
    <vehicle id="18" depart="36.00">
        <route edges="-gneE4 -gneE2"/>
    </vehicle>
    <vehicle id="19" depart="38.00">
        <route edges="-gneE6 gneE4"/>
    </vehicle>
    <vehicle id="21" depart="42.00">
        <route edges="-gneE6 -gneE3"/>
    </vehicle>
    <vehicle id="25" depart="50.00">
        <route edges="gneE3 gneE6"/>
    </vehicle>
    <vehicle id="26" depart="52.00">
        <route edges="gneE2 gneE6"/>
    </vehicle>
    <vehicle id="27" depart="54.00">
        <route edges="-gneE4 gneE6"/>
    </vehicle>
    <vehicle id="28" depart="56.00">
        <route edges="gneE2 gneE4"/>
    </vehicle>
    <vehicle id="29" depart="58.00">
        <route edges="-gneE6 -gneE2"/>
    </vehicle>
    <vehicle id="30" depart="60.00">
        <route edges="gneE3 gneE4"/>
    </vehicle>
    <vehicle id="31" depart="62.00">
        <route edges="gneE3 gneE6"/>
    </vehicle>
    <vehicle id="32" depart="64.00">
        <route edges="-gneE4 gneE6"/>
    </vehicle>
    <vehicle id="33" depart="66.00">
        <route edges="gneE2 -gneE3"/>
    </vehicle>
    <vehicle id="35" depart="70.00">
        <route edges="-gneE6 gneE4"/>
    </vehicle>
    <vehicle id="36" depart="72.00">
        <route edges="-gneE4 -gneE3"/>
    </vehicle>
    <vehicle id="37" depart="74.00">
        <route edges="gneE3 gneE4"/>
    </vehicle>
    <vehicle id="38" depart="76.00">
        <route edges="-gneE4 gneE6"/>
    </vehicle>
    <vehicle id="39" depart="78.00">
        <route edges="-gneE4 -gneE3"/>
    </vehicle>
    <vehicle id="40" depart="80.00">
        <route edges="-gneE4 -gneE2"/>
    </vehicle>
    <vehicle id="41" depart="82.00">
        <route edges="gneE3 gneE4"/>
    </vehicle>
    <vehicle id="42" depart="84.00">
        <route edges="gneE2 -gneE3"/>
    </vehicle>
    <vehicle id="43" depart="86.00">
        <route edges="-gneE6 gneE4"/>
    </vehicle>
    <vehicle id="49" depart="98.00">
        <route edges="-gneE6 -gneE3"/>
    </vehicle>
    <vehicle id="50" depart="100.00">
        <route edges="-gneE4 gneE6"/>
    </vehicle>
    <vehicle id="52" depart="104.00">
        <route edges="gneE3 gneE4"/>
    </vehicle>
    <vehicle id="54" depart="108.00">
        <route edges="gneE3 -gneE2"/>
    </vehicle>
    <vehicle id="55" depart="110.00">
        <route edges="-gneE6 gneE4"/>
    </vehicle>
    <vehicle id="56" depart="112.00">
        <route edges="-gneE4 gneE6"/>
    </vehicle>
    <vehicle id="57" depart="114.00">
        <route edges="gneE2 gneE4"/>
    </vehicle>
    <vehicle id="58" depart="116.00">
        <route edges="gneE2 gneE6"/>
    </vehicle>
    <vehicle id="59" depart="118.00">
        <route edges="gneE3 gneE6"/>
    </vehicle>
    <vehicle id="60" depart="120.00">
        <route edges="-gneE4 gneE6"/>
    </vehicle>
    <vehicle id="63" depart="126.00">
        <route edges="gneE3 gneE6"/>
    </vehicle>
    <vehicle id="64" depart="128.00">
        <route edges="-gneE6 gneE4"/>
    </vehicle>
    <vehicle id="65" depart="130.00">
        <route edges="gneE2 gneE6"/>
    </vehicle>
    <vehicle id="66" depart="132.00">
        <route edges="gneE2 -gneE3"/>
    </vehicle>
    <vehicle id="67" depart="134.00">
        <route edges="-gneE6 -gneE2"/>
    </vehicle>
    <vehicle id="70" depart="140.00">
        <route edges="gneE3 gneE6"/>
    </vehicle>
    <vehicle id="71" depart="142.00">
        <route edges="gneE3 -gneE2"/>
    </vehicle>
    <vehicle id="72" depart="144.00">
        <route edges="-gneE6 gneE4"/>
    </vehicle>
    <vehicle id="73" depart="146.00">
        <route edges="gneE2 gneE6"/>
    </vehicle>
    <vehicle id="74" depart="148.00">
        <route edges="-gneE4 -gneE3"/>
    </vehicle>
    <vehicle id="75" depart="150.00">
        <route edges="-gneE6 gneE4"/>
    </vehicle>
    <vehicle id="76" depart="152.00">
        <route edges="-gneE6 -gneE3"/>
    </vehicle>
    <vehicle id="77" depart="154.00">
        <route edges="gneE2 -gneE3"/>
    </vehicle>
    <vehicle id="78" depart="156.00">
        <route edges="gneE3 gneE4"/>
    </vehicle>
    <vehicle id="80" depart="160.00">
        <route edges="-gneE4 -gneE3"/>
    </vehicle>
    <vehicle id="81" depart="162.00">
        <route edges="gneE2 gneE6"/>
    </vehicle>
    <vehicle id="84" depart="168.00">
        <route edges="-gneE6 -gneE2"/>
    </vehicle>
    <vehicle id="85" depart="170.00">
        <route edges="-gneE6 -gneE3"/>
    </vehicle>
    <vehicle id="86" depart="172.00">
        <route edges="-gneE4 -gneE2"/>
    </vehicle>
    <vehicle id="87" depart="174.00">
        <route edges="-gneE6 gneE4"/>
    </vehicle>
    <vehicle id="88" depart="176.00">
        <route edges="-gneE6 -gneE2"/>
    </vehicle>
    <vehicle id="89" depart="178.00">
        <route edges="gneE3 gneE4"/>
    </vehicle>
    <vehicle id="90" depart="180.00">
        <route edges="gneE2 -gneE3"/>
    </vehicle>
    <vehicle id="91" depart="182.00">
        <route edges="-gneE6 -gneE2"/>
    </vehicle>
    <vehicle id="92" depart="184.00">
        <route edges="gneE3 gneE4"/>
    </vehicle>
    <vehicle id="93" depart="186.00">
        <route edges="gneE3 -gneE2"/>
    </vehicle>
    <vehicle id="94" depart="188.00">
        <route edges="gneE3 -gneE2"/>
    </vehicle>
    <vehicle id="96" depart="192.00">
        <route edges="-gneE6 gneE4"/>
    </vehicle>
    <vehicle id="97" depart="194.00">
        <route edges="-gneE4 -gneE2"/>
    </vehicle>
    <vehicle id="98" depart="196.00">
        <route edges="-gneE6 -gneE3"/>
    </vehicle>
    <vehicle id="99" depart="198.00">
        <route edges="-gneE6 gneE4"/>
    </vehicle>
    <vehicle id="101" depart="202.00">
        <route edges="-gneE4 -gneE3"/>
    </vehicle>
    <vehicle id="102" depart="204.00">
        <route edges="gneE2 -gneE3"/>
    </vehicle>
    <vehicle id="103" depart="206.00">
        <route edges="gneE3 -gneE2"/>
    </vehicle>
    <vehicle id="104" depart="208.00">
        <route edges="gneE3 -gneE2"/>
    </vehicle>
    <vehicle id="105" depart="210.00">
        <route edges="gneE2 gneE4"/>
    </vehicle>
    <vehicle id="106" depart="212.00">
        <route edges="-gneE4 -gneE3"/>
    </vehicle>
    <vehicle id="107" depart="214.00">
        <route edges="-gneE4 -gneE2"/>
    </vehicle>
    <vehicle id="108" depart="216.00">
        <route edges="gneE2 -gneE3"/>
    </vehicle>
    <vehicle id="110" depart="220.00">
        <route edges="-gneE4 gneE6"/>
    </vehicle>
    <vehicle id="112" depart="224.00">
        <route edges="gneE2 -gneE3"/>
    </vehicle>
    <vehicle id="113" depart="226.00">
        <route edges="-gneE6 -gneE2"/>
    </vehicle>
    <vehicle id="114" depart="228.00">
        <route edges="-gneE6 -gneE2"/>
    </vehicle>
    <vehicle id="115" depart="230.00">
        <route edges="-gneE6 -gneE3"/>
    </vehicle>
    <vehicle id="116" depart="232.00">
        <route edges="gneE3 gneE6"/>
    </vehicle>
    <vehicle id="117" depart="234.00">
        <route edges="-gneE6 gneE4"/>
    </vehicle>
    <vehicle id="119" depart="238.00">
        <route edges="gneE3 gneE4"/>
    </vehicle>
    <vehicle id="120" depart="240.00">
        <route edges="-gneE4 -gneE2"/>
    </vehicle>
    <vehicle id="122" depart="244.00">
        <route edges="gneE3 -gneE2"/>
    </vehicle>
    <vehicle id="123" depart="246.00">
        <route edges="-gneE4 gneE6"/>
    </vehicle>
    <vehicle id="124" depart="248.00">
        <route edges="gneE3 gneE4"/>
    </vehicle>
    <vehicle id="125" depart="250.00">
        <route edges="gneE3 -gneE2"/>
    </vehicle>
    <vehicle id="127" depart="254.00">
        <route edges="-gneE4 -gneE2"/>
    </vehicle>
    <vehicle id="129" depart="258.00">
        <route edges="gneE3 gneE4"/>
    </vehicle>
    <vehicle id="131" depart="262.00">
        <route edges="gneE3 -gneE2"/>
    </vehicle>
    <vehicle id="132" depart="264.00">
        <route edges="-gneE4 -gneE2"/>
    </vehicle>
    <vehicle id="133" depart="266.00">
        <route edges="-gneE6 gneE4"/>
    </vehicle>
    <vehicle id="135" depart="270.00">
        <route edges="-gneE4 -gneE3"/>
    </vehicle>
    <vehicle id="137" depart="274.00">
        <route edges="-gneE4 -gneE2"/>
    </vehicle>
    <vehicle id="138" depart="276.00">
        <route edges="-gneE4 gneE6"/>
    </vehicle>
    <vehicle id="140" depart="280.00">
        <route edges="gneE3 gneE6"/>
    </vehicle>
    <vehicle id="141" depart="282.00">
        <route edges="-gneE4 -gneE2"/>
    </vehicle>
    <vehicle id="142" depart="284.00">
        <route edges="-gneE6 -gneE2"/>
    </vehicle>
    <vehicle id="144" depart="288.00">
        <route edges="-gneE6 gneE4"/>
    </vehicle>
    <vehicle id="145" depart="290.00">
        <route edges="gneE3 gneE6"/>
    </vehicle>
    <vehicle id="149" depart="298.00">
        <route edges="gneE2 -gneE3"/>
    </vehicle>
    <vehicle id="151" depart="302.00">
        <route edges="-gneE4 gneE6"/>
    </vehicle>
    <vehicle id="152" depart="304.00">
        <route edges="-gneE4 gneE6"/>
    </vehicle>
    <vehicle id="153" depart="306.00">
        <route edges="gneE3 gneE6"/>
    </vehicle>
    <vehicle id="156" depart="312.00">
        <route edges="-gneE6 gneE4"/>
    </vehicle>
    <vehicle id="157" depart="314.00">
        <route edges="-gneE4 gneE6"/>
    </vehicle>
    <vehicle id="158" depart="316.00">
        <route edges="gneE2 gneE4"/>
    </vehicle>
    <vehicle id="160" depart="320.00">
        <route edges="-gneE6 -gneE2"/>
    </vehicle>
    <vehicle id="161" depart="322.00">
        <route edges="-gneE4 gneE6"/>
    </vehicle>
    <vehicle id="164" depart="328.00">
        <route edges="-gneE4 -gneE3"/>
    </vehicle>
    <vehicle id="165" depart="330.00">
        <route edges="-gneE4 -gneE2"/>
    </vehicle>
    <vehicle id="166" depart="332.00">
        <route edges="-gneE4 -gneE3"/>
    </vehicle>
    <vehicle id="167" depart="334.00">
        <route edges="gneE3 gneE6"/>
    </vehicle>
    <vehicle id="168" depart="336.00">
        <route edges="gneE3 gneE4"/>
    </vehicle>
    <vehicle id="170" depart="340.00">
        <route edges="-gneE6 gneE4"/>
    </vehicle>
    <vehicle id="171" depart="342.00">
        <route edges="gneE2 -gneE3"/>
    </vehicle>
    <vehicle id="173" depart="346.00">
        <route edges="gneE2 -gneE3"/>
    </vehicle>
    <vehicle id="176" depart="352.00">
        <route edges="-gneE6 -gneE2"/>
    </vehicle>
    <vehicle id="177" depart="354.00">
        <route edges="gneE2 gneE4"/>
    </vehicle>
    <vehicle id="178" depart="356.00">
        <route edges="gneE2 gneE6"/>
    </vehicle>
    <vehicle id="179" depart="358.00">
        <route edges="gneE3 gneE4"/>
    </vehicle>
    <vehicle id="181" depart="362.00">
        <route edges="gneE2 -gneE3"/>
    </vehicle>
    <vehicle id="182" depart="364.00">
        <route edges="-gneE6 -gneE2"/>
    </vehicle>
    <vehicle id="184" depart="368.00">
        <route edges="gneE3 gneE4"/>
    </vehicle>
    <vehicle id="185" depart="370.00">
        <route edges="gneE2 -gneE3"/>
    </vehicle>
    <vehicle id="186" depart="372.00">
        <route edges="-gneE4 -gneE3"/>
    </vehicle>
    <vehicle id="188" depart="376.00">
        <route edges="-gneE4 gneE6"/>
    </vehicle>
    <vehicle id="189" depart="378.00">
        <route edges="-gneE4 gneE6"/>
    </vehicle>
    <vehicle id="190" depart="380.00">
        <route edges="gneE2 gneE6"/>
    </vehicle>
    <vehicle id="191" depart="382.00">
        <route edges="gneE3 gneE4"/>
    </vehicle>
    <vehicle id="192" depart="384.00">
        <route edges="-gneE6 gneE4"/>
    </vehicle>
    <vehicle id="193" depart="386.00">
        <route edges="gneE3 gneE4"/>
    </vehicle>
    <vehicle id="194" depart="388.00">
        <route edges="-gneE4 -gneE2"/>
    </vehicle>
    <vehicle id="197" depart="394.00">
        <route edges="gneE3 gneE6"/>
    </vehicle>
    <vehicle id="198" depart="396.00">
        <route edges="-gneE6 -gneE2"/>
    </vehicle>
    <vehicle id="199" depart="398.00">
        <route edges="-gneE4 -gneE2"/>
    </vehicle>
    <vehicle id="200" depart="400.00">
        <route edges="gneE2 gneE4"/>
    </vehicle>
    <vehicle id="201" depart="402.00">
        <route edges="gneE3 gneE4"/>
    </vehicle>
    <vehicle id="202" depart="404.00">
        <route edges="-gneE4 gneE6"/>
    </vehicle>
    <vehicle id="203" depart="406.00">
        <route edges="-gneE6 -gneE3"/>
    </vehicle>
    <vehicle id="205" depart="410.00">
        <route edges="-gneE6 gneE4"/>
    </vehicle>
    <vehicle id="206" depart="412.00">
        <route edges="-gneE4 gneE6"/>
    </vehicle>
    <vehicle id="207" depart="414.00">
        <route edges="gneE2 -gneE3"/>
    </vehicle>
    <vehicle id="208" depart="416.00">
        <route edges="gneE3 gneE6"/>
    </vehicle>
    <vehicle id="209" depart="418.00">
        <route edges="gneE3 gneE4"/>
    </vehicle>
    <vehicle id="210" depart="420.00">
        <route edges="-gneE4 -gneE3"/>
    </vehicle>
    <vehicle id="211" depart="422.00">
        <route edges="-gneE6 -gneE2"/>
    </vehicle>
    <vehicle id="212" depart="424.00">
        <route edges="gneE2 gneE6"/>
    </vehicle>
    <vehicle id="213" depart="426.00">
        <route edges="-gneE4 -gneE3"/>
    </vehicle>
    <vehicle id="214" depart="428.00">
        <route edges="-gneE4 -gneE2"/>
    </vehicle>
    <vehicle id="215" depart="430.00">
        <route edges="gneE3 gneE6"/>
    </vehicle>
    <vehicle id="216" depart="432.00">
        <route edges="gneE3 gneE6"/>
    </vehicle>
    <vehicle id="217" depart="434.00">
        <route edges="-gneE6 -gneE2"/>
    </vehicle>
    <vehicle id="219" depart="438.00">
        <route edges="-gneE4 gneE6"/>
    </vehicle>
    <vehicle id="222" depart="444.00">
        <route edges="gneE3 gneE4"/>
    </vehicle>
    <vehicle id="224" depart="448.00">
        <route edges="gneE2 -gneE3"/>
    </vehicle>
    <vehicle id="225" depart="450.00">
        <route edges="-gneE4 -gneE3"/>
    </vehicle>
    <vehicle id="226" depart="452.00">
        <route edges="gneE2 -gneE3"/>
    </vehicle>
    <vehicle id="227" depart="454.00">
        <route edges="-gneE4 gneE6"/>
    </vehicle>
    <vehicle id="229" depart="458.00">
        <route edges="gneE3 gneE4"/>
    </vehicle>
    <vehicle id="230" depart="460.00">
        <route edges="-gneE4 -gneE2"/>
    </vehicle>
    <vehicle id="231" depart="462.00">
        <route edges="-gneE4 gneE6"/>
    </vehicle>
    <vehicle id="232" depart="464.00">
        <route edges="gneE2 -gneE3"/>
    </vehicle>
    <vehicle id="234" depart="468.00">
        <route edges="-gneE6 -gneE2"/>
    </vehicle>
    <vehicle id="236" depart="472.00">
        <route edges="-gneE4 gneE6"/>
    </vehicle>
    <vehicle id="237" depart="474.00">
        <route edges="gneE3 gneE4"/>
    </vehicle>
    <vehicle id="238" depart="476.00">
        <route edges="-gneE4 gneE6"/>
    </vehicle>
    <vehicle id="239" depart="478.00">
        <route edges="gneE3 gneE6"/>
    </vehicle>
    <vehicle id="242" depart="484.00">
        <route edges="-gneE6 gneE4"/>
    </vehicle>
    <vehicle id="244" depart="488.00">
        <route edges="gneE3 -gneE2"/>
    </vehicle>
    <vehicle id="246" depart="492.00">
        <route edges="gneE2 gneE4"/>
    </vehicle>
    <vehicle id="248" depart="496.00">
        <route edges="-gneE4 -gneE3"/>
    </vehicle>
    <vehicle id="249" depart="498.00">
        <route edges="-gneE4 -gneE3"/>
    </vehicle>
    <vehicle id="250" depart="500.00">
        <route edges="-gneE6 -gneE3"/>
    </vehicle>
    <vehicle id="252" depart="504.00">
        <route edges="gneE3 gneE4"/>
    </vehicle>
    <vehicle id="253" depart="506.00">
        <route edges="-gneE4 -gneE3"/>
    </vehicle>
    <vehicle id="254" depart="508.00">
        <route edges="-gneE6 -gneE3"/>
    </vehicle>
    <vehicle id="255" depart="510.00">
        <route edges="-gneE6 gneE4"/>
    </vehicle>
    <vehicle id="257" depart="514.00">
        <route edges="gneE2 -gneE3"/>
    </vehicle>
    <vehicle id="258" depart="516.00">
        <route edges="gneE3 gneE6"/>
    </vehicle>
    <vehicle id="259" depart="518.00">
        <route edges="-gneE4 -gneE2"/>
    </vehicle>
    <vehicle id="260" depart="520.00">
        <route edges="-gneE6 -gneE3"/>
    </vehicle>
    <vehicle id="261" depart="522.00">
        <route edges="gneE3 gneE4"/>
    </vehicle>
    <vehicle id="262" depart="524.00">
        <route edges="-gneE4 -gneE2"/>
    </vehicle>
    <vehicle id="263" depart="526.00">
        <route edges="gneE3 gneE6"/>
    </vehicle>
    <vehicle id="264" depart="528.00">
        <route edges="gneE2 -gneE3"/>
    </vehicle>
    <vehicle id="265" depart="530.00">
        <route edges="gneE3 gneE6"/>
    </vehicle>
    <vehicle id="268" depart="536.00">
        <route edges="gneE3 gneE6"/>
    </vehicle>
    <vehicle id="271" depart="542.00">
        <route edges="-gneE6 -gneE2"/>
    </vehicle>
    <vehicle id="272" depart="544.00">
        <route edges="gneE3 -gneE2"/>
    </vehicle>
    <vehicle id="273" depart="546.00">
        <route edges="gneE2 gneE6"/>
    </vehicle>
    <vehicle id="275" depart="550.00">
        <route edges="-gneE6 -gneE2"/>
    </vehicle>
    <vehicle id="277" depart="554.00">
        <route edges="-gneE4 gneE6"/>
    </vehicle>
    <vehicle id="278" depart="556.00">
        <route edges="gneE2 gneE4"/>
    </vehicle>
    <vehicle id="279" depart="558.00">
        <route edges="gneE3 gneE4"/>
    </vehicle>
    <vehicle id="281" depart="562.00">
        <route edges="gneE2 -gneE3"/>
    </vehicle>
    <vehicle id="283" depart="566.00">
        <route edges="gneE3 gneE6"/>
    </vehicle>
    <vehicle id="285" depart="570.00">
        <route edges="-gneE6 gneE4"/>
    </vehicle>
    <vehicle id="286" depart="572.00">
        <route edges="gneE2 gneE6"/>
    </vehicle>
    <vehicle id="290" depart="580.00">
        <route edges="-gneE6 gneE4"/>
    </vehicle>
    <vehicle id="292" depart="584.00">
        <route edges="gneE3 gneE4"/>
    </vehicle>
    <vehicle id="293" depart="586.00">
        <route edges="gneE3 gneE4"/>
    </vehicle>
    <vehicle id="295" depart="590.00">
        <route edges="-gneE4 -gneE3"/>
    </vehicle>
    <vehicle id="296" depart="592.00">
        <route edges="-gneE4 -gneE3"/>
    </vehicle>
    <vehicle id="298" depart="596.00">
        <route edges="gneE2 -gneE3"/>
    </vehicle>
    <vehicle id="299" depart="598.00">
        <route edges="gneE2 -gneE3"/>
    </vehicle>
    <vehicle id="300" depart="600.00">
        <route edges="gneE3 gneE4"/>
    </vehicle>
    <vehicle id="301" depart="602.00">
        <route edges="gneE2 gneE4"/>
    </vehicle>
    <vehicle id="302" depart="604.00">
        <route edges="-gneE6 gneE4"/>
    </vehicle>
    <vehicle id="303" depart="606.00">
        <route edges="-gneE4 gneE6"/>
    </vehicle>
    <vehicle id="305" depart="610.00">
        <route edges="gneE2 -gneE3"/>
    </vehicle>
    <vehicle id="306" depart="612.00">
        <route edges="gneE2 gneE6"/>
    </vehicle>
    <vehicle id="308" depart="616.00">
        <route edges="-gneE6 -gneE3"/>
    </vehicle>
    <vehicle id="309" depart="618.00">
        <route edges="-gneE6 -gneE2"/>
    </vehicle>
    <vehicle id="310" depart="620.00">
        <route edges="-gneE4 gneE6"/>
    </vehicle>
    <vehicle id="311" depart="622.00">
        <route edges="-gneE6 -gneE2"/>
    </vehicle>
    <vehicle id="312" depart="624.00">
        <route edges="-gneE4 -gneE2"/>
    </vehicle>
    <vehicle id="314" depart="628.00">
        <route edges="-gneE4 gneE6"/>
    </vehicle>
    <vehicle id="315" depart="630.00">
        <route edges="gneE2 -gneE3"/>
    </vehicle>
    <vehicle id="316" depart="632.00">
        <route edges="gneE2 gneE4"/>
    </vehicle>
    <vehicle id="317" depart="634.00">
        <route edges="gneE2 gneE4"/>
    </vehicle>
    <vehicle id="321" depart="642.00">
        <route edges="gneE3 gneE4"/>
    </vehicle>
    <vehicle id="322" depart="644.00">
        <route edges="gneE2 gneE4"/>
    </vehicle>
    <vehicle id="324" depart="648.00">
        <route edges="gneE2 gneE6"/>
    </vehicle>
    <vehicle id="325" depart="650.00">
        <route edges="gneE3 gneE6"/>
    </vehicle>
    <vehicle id="326" depart="652.00">
        <route edges="-gneE6 -gneE2"/>
    </vehicle>
    <vehicle id="327" depart="654.00">
        <route edges="gneE3 -gneE2"/>
    </vehicle>
    <vehicle id="328" depart="656.00">
        <route edges="-gneE6 -gneE3"/>
    </vehicle>
    <vehicle id="330" depart="660.00">
        <route edges="gneE3 -gneE2"/>
    </vehicle>
    <vehicle id="331" depart="662.00">
        <route edges="gneE3 gneE4"/>
    </vehicle>
    <vehicle id="333" depart="666.00">
        <route edges="gneE2 -gneE3"/>
    </vehicle>
    <vehicle id="334" depart="668.00">
        <route edges="gneE2 gneE6"/>
    </vehicle>
    <vehicle id="336" depart="672.00">
        <route edges="gneE3 gneE6"/>
    </vehicle>
    <vehicle id="337" depart="674.00">
        <route edges="gneE2 gneE6"/>
    </vehicle>
    <vehicle id="338" depart="676.00">
        <route edges="gneE2 -gneE3"/>
    </vehicle>
    <vehicle id="340" depart="680.00">
        <route edges="gneE2 -gneE3"/>
    </vehicle>
    <vehicle id="341" depart="682.00">
        <route edges="-gneE4 -gneE2"/>
    </vehicle>
    <vehicle id="342" depart="684.00">
        <route edges="gneE2 gneE4"/>
    </vehicle>
    <vehicle id="343" depart="686.00">
        <route edges="gneE2 gneE4"/>
    </vehicle>
    <vehicle id="344" depart="688.00">
        <route edges="gneE3 gneE6"/>
    </vehicle>
    <vehicle id="346" depart="692.00">
        <route edges="gneE2 gneE4"/>
    </vehicle>
    <vehicle id="347" depart="694.00">
        <route edges="gneE2 gneE4"/>
    </vehicle>
    <vehicle id="348" depart="696.00">
        <route edges="gneE3 gneE6"/>
    </vehicle>
    <vehicle id="349" depart="698.00">
        <route edges="gneE3 gneE4"/>
    </vehicle>
    <vehicle id="350" depart="700.00">
        <route edges="-gneE4 -gneE2"/>
    </vehicle>
    <vehicle id="351" depart="702.00">
        <route edges="-gneE6 -gneE3"/>
    </vehicle>
    <vehicle id="353" depart="706.00">
        <route edges="gneE3 gneE6"/>
    </vehicle>
    <vehicle id="354" depart="708.00">
        <route edges="gneE2 gneE6"/>
    </vehicle>
    <vehicle id="356" depart="712.00">
        <route edges="gneE3 gneE6"/>
    </vehicle>
    <vehicle id="357" depart="714.00">
        <route edges="gneE3 gneE6"/>
    </vehicle>
    <vehicle id="358" depart="716.00">
        <route edges="gneE2 gneE6"/>
    </vehicle>
    <vehicle id="359" depart="718.00">
        <route edges="gneE3 gneE6"/>
    </vehicle>
    <vehicle id="360" depart="720.00">
        <route edges="gneE2 gneE6"/>
    </vehicle>
    <vehicle id="364" depart="728.00">
        <route edges="gneE3 gneE6"/>
    </vehicle>
    <vehicle id="365" depart="730.00">
        <route edges="gneE3 -gneE2"/>
    </vehicle>
    <vehicle id="366" depart="732.00">
        <route edges="gneE3 -gneE2"/>
    </vehicle>
    <vehicle id="367" depart="734.00">
        <route edges="gneE3 -gneE2"/>
    </vehicle>
    <vehicle id="370" depart="740.00">
        <route edges="gneE3 -gneE2"/>
    </vehicle>
    <vehicle id="372" depart="744.00">
        <route edges="-gneE6 gneE4"/>
    </vehicle>
    <vehicle id="374" depart="748.00">
        <route edges="-gneE4 -gneE2"/>
    </vehicle>
    <vehicle id="375" depart="750.00">
        <route edges="-gneE4 gneE6"/>
    </vehicle>
    <vehicle id="377" depart="754.00">
        <route edges="-gneE4 -gneE2"/>
    </vehicle>
    <vehicle id="378" depart="756.00">
        <route edges="-gneE4 -gneE2"/>
    </vehicle>
    <vehicle id="379" depart="758.00">
        <route edges="gneE2 gneE6"/>
    </vehicle>
    <vehicle id="380" depart="760.00">
        <route edges="-gneE4 -gneE3"/>
    </vehicle>
    <vehicle id="381" depart="762.00">
        <route edges="-gneE4 -gneE2"/>
    </vehicle>
    <vehicle id="382" depart="764.00">
        <route edges="-gneE6 gneE4"/>
    </vehicle>
    <vehicle id="385" depart="770.00">
        <route edges="-gneE4 gneE6"/>
    </vehicle>
    <vehicle id="386" depart="772.00">
        <route edges="-gneE4 gneE6"/>
    </vehicle>
    <vehicle id="387" depart="774.00">
        <route edges="gneE3 gneE6"/>
    </vehicle>
    <vehicle id="388" depart="776.00">
        <route edges="-gneE4 gneE6"/>
    </vehicle>
    <vehicle id="389" depart="778.00">
        <route edges="gneE3 gneE6"/>
    </vehicle>
    <vehicle id="390" depart="780.00">
        <route edges="gneE2 -gneE3"/>
    </vehicle>
    <vehicle id="391" depart="782.00">
        <route edges="gneE2 gneE6"/>
    </vehicle>
    <vehicle id="393" depart="786.00">
        <route edges="-gneE4 -gneE2"/>
    </vehicle>
    <vehicle id="394" depart="788.00">
        <route edges="gneE2 gneE6"/>
    </vehicle>
    <vehicle id="395" depart="790.00">
        <route edges="-gneE6 gneE4"/>
    </vehicle>
    <vehicle id="397" depart="794.00">
        <route edges="-gneE6 -gneE2"/>
    </vehicle>
    <vehicle id="398" depart="796.00">
        <route edges="gneE3 gneE4"/>
    </vehicle>
    <vehicle id="399" depart="798.00">
        <route edges="gneE3 gneE6"/>
    </vehicle>
    <vehicle id="400" depart="800.00">
        <route edges="gneE2 gneE6"/>
    </vehicle>
    <vehicle id="401" depart="802.00">
        <route edges="-gneE4 -gneE2"/>
    </vehicle>
    <vehicle id="402" depart="804.00">
        <route edges="-gneE6 gneE4"/>
    </vehicle>
    <vehicle id="404" depart="808.00">
        <route edges="-gneE4 -gneE3"/>
    </vehicle>
    <vehicle id="406" depart="812.00">
        <route edges="-gneE6 -gneE2"/>
    </vehicle>
    <vehicle id="407" depart="814.00">
        <route edges="-gneE4 gneE6"/>
    </vehicle>
    <vehicle id="408" depart="816.00">
        <route edges="-gneE4 -gneE3"/>
    </vehicle>
    <vehicle id="409" depart="818.00">
        <route edges="gneE3 -gneE2"/>
    </vehicle>
    <vehicle id="412" depart="824.00">
        <route edges="-gneE6 gneE4"/>
    </vehicle>
    <vehicle id="413" depart="826.00">
        <route edges="gneE3 gneE4"/>
    </vehicle>
    <vehicle id="414" depart="828.00">
        <route edges="-gneE6 -gneE3"/>
    </vehicle>
    <vehicle id="415" depart="830.00">
        <route edges="gneE3 gneE6"/>
    </vehicle>
    <vehicle id="417" depart="834.00">
        <route edges="gneE3 -gneE2"/>
    </vehicle>
    <vehicle id="418" depart="836.00">
        <route edges="gneE2 -gneE3"/>
    </vehicle>
    <vehicle id="420" depart="840.00">
        <route edges="-gneE4 gneE6"/>
    </vehicle>
    <vehicle id="421" depart="842.00">
        <route edges="gneE3 gneE4"/>
    </vehicle>
    <vehicle id="422" depart="844.00">
        <route edges="-gneE4 -gneE3"/>
    </vehicle>
    <vehicle id="423" depart="846.00">
        <route edges="gneE3 gneE6"/>
    </vehicle>
    <vehicle id="424" depart="848.00">
        <route edges="gneE2 gneE4"/>
    </vehicle>
    <vehicle id="425" depart="850.00">
        <route edges="gneE2 gneE4"/>
    </vehicle>
    <vehicle id="427" depart="854.00">
        <route edges="gneE2 gneE6"/>
    </vehicle>
    <vehicle id="429" depart="858.00">
        <route edges="-gneE4 -gneE3"/>
    </vehicle>
    <vehicle id="430" depart="860.00">
        <route edges="-gneE4 gneE6"/>
    </vehicle>
    <vehicle id="431" depart="862.00">
        <route edges="gneE2 gneE6"/>
    </vehicle>
    <vehicle id="432" depart="864.00">
        <route edges="-gneE6 -gneE2"/>
    </vehicle>
    <vehicle id="433" depart="866.00">
        <route edges="-gneE4 gneE6"/>
    </vehicle>
    <vehicle id="434" depart="868.00">
        <route edges="gneE2 -gneE3"/>
    </vehicle>
    <vehicle id="435" depart="870.00">
        <route edges="-gneE6 -gneE2"/>
    </vehicle>
    <vehicle id="436" depart="872.00">
        <route edges="gneE2 -gneE3"/>
    </vehicle>
    <vehicle id="437" depart="874.00">