<?xml version="1.0" encoding="UTF-8"?>

<!-- generated on Sun May  6 19:50:50 2018 by SUMO duarouter Version 0.30.0
<?xml version="1.0" encoding="UTF-8"?>

<configuration xmlns:xsi="http://www.w3.org/2001/XMLSchema-instance" xsi:noNamespaceSchemaLocation="http://sumo.dlr.de/xsd/duarouterConfiguration.xsd">

    <input>
        <net-file value="cross/cross.net.xml"/>
        <route-files value="trips.trips.xml"/>
    </input>

    <output>
        <output-file value="cross/route/cross-2.0-0.rou.xml"/>
    </output>

    <processing>
        <ignore-errors value="true"/>
    </processing>

    <time>
        <begin value="0.0"/>
        <end value="1000.0"/>
    </time>

    <report>
        <no-warnings value="true"/>
        <no-step-log value="true"/>
    </report>

</configuration>
-->

<routes xmlns:xsi="http://www.w3.org/2001/XMLSchema-instance" xsi:noNamespaceSchemaLocation="http://sumo.dlr.de/xsd/routes_file.xsd">
    <vehicle id="0" depart="0.00">
        <route edges="gneE3 gneE6"/>
    </vehicle>
    <vehicle id="1" depart="2.00">
        <route edges="-gneE4 -gneE3"/>
    </vehicle>
    <vehicle id="2" depart="4.00">
        <route edges="gneE2 gneE6"/>
    </vehicle>
    <vehicle id="3" depart="6.00">
        <route edges="gneE2 -gneE3"/>
    </vehicle>
    <vehicle id="4" depart="8.00">
        <route edges="gneE2 gneE4"/>
    </vehicle>
    <vehicle id="6" depart="12.00">
        <route edges="-gneE4 -gneE3"/>
    </vehicle>
    <vehicle id="7" depart="14.00">
        <route edges="gneE3 -gneE2"/>
    </vehicle>
    <vehicle id="8" depart="16.00">
        <route edges="-gneE4 gneE6"/>
    </vehicle>
    <vehicle id="9" depart="18.00">
        <route edges="-gneE6 -gneE3"/>
    </vehicle>
    <vehicle id="10" depart="20.00">
        <route edges="-gneE4 gneE6"/>
    </vehicle>
    <vehicle id="11" depart="22.00">
        <route edges="-gneE6 -gneE3"/>
    </vehicle>
    <vehicle id="12" depart="24.00">
        <route edges="-gneE4 -gneE2"/>
    </vehicle>
    <vehicle id="14" depart="28.00">
        <route edges="-gneE4 -gneE2"/>
    </vehicle>
    <vehicle id="15" depart="30.00">
        <route edges="-gneE6 -gneE2"/>
    </vehicle>
    <vehicle id="17" depart="34.00">
        <route edges="-gneE4 -gneE3"/>
    </vehicle>
    <vehicle id="18" depart="36.00">
        <route edges="gneE3 gneE6"/>
    </vehicle>
    <vehicle id="19" depart="38.00">
        <route edges="gneE2 gneE4"/>
    </vehicle>
    <vehicle id="20" depart="40.00">
        <route edges="-gneE4 -gneE2"/>
    </vehicle>
    <vehicle id="22" depart="44.00">
        <route edges="gneE2 -gneE3"/>
    </vehicle>
    <vehicle id="23" depart="46.00">
        <route edges="gneE2 gneE4"/>
    </vehicle>
    <vehicle id="25" depart="50.00">
        <route edges="-gneE4 -gneE2"/>
    </vehicle>
    <vehicle id="26" depart="52.00">
        <route edges="-gneE6 -gneE3"/>
    </vehicle>
    <vehicle id="28" depart="56.00">
        <route edges="gneE3 gneE6"/>
    </vehicle>
    <vehicle id="29" depart="58.00">
        <route edges="-gneE4 gneE6"/>
    </vehicle>
    <vehicle id="30" depart="60.00">
        <route edges="gneE2 gneE6"/>
    </vehicle>
    <vehicle id="32" depart="64.00">
        <route edges="-gneE6 gneE4"/>
    </vehicle>
    <vehicle id="34" depart="68.00">
        <route edges="-gneE6 -gneE2"/>
    </vehicle>
    <vehicle id="35" depart="70.00">
        <route edges="-gneE4 gneE6"/>
    </vehicle>
    <vehicle id="37" depart="74.00">
        <route edges="gneE2 gneE6"/>
    </vehicle>
    <vehicle id="39" depart="78.00">
        <route edges="gneE3 gneE4"/>
    </vehicle>
    <vehicle id="40" depart="80.00">
        <route edges="-gneE6 -gneE3"/>
    </vehicle>
    <vehicle id="41" depart="82.00">
        <route edges="gneE3 gneE4"/>
    </vehicle>
    <vehicle id="43" depart="86.00">
        <route edges="-gneE4 -gneE3"/>
    </vehicle>
    <vehicle id="45" depart="90.00">
        <route edges="-gneE6 -gneE3"/>
    </vehicle>
    <vehicle id="47" depart="94.00">
        <route edges="gneE3 gneE6"/>
    </vehicle>
    <vehicle id="48" depart="96.00">
        <route edges="-gneE6 -gneE3"/>
    </vehicle>
    <vehicle id="50" depart="100.00">
        <route edges="gneE3 -gneE2"/>
    </vehicle>
    <vehicle id="51" depart="102.00">
        <route edges="-gneE6 -gneE2"/>
    </vehicle>
    <vehicle id="52" depart="104.00">
        <route edges="-gneE4 -gneE2"/>
    </vehicle>
    <vehicle id="54" depart="108.00">
        <route edges="-gneE6 -gneE3"/>
    </vehicle>
    <vehicle id="55" depart="110.00">
        <route edges="-gneE4 -gneE2"/>
    </vehicle>
    <vehicle id="56" depart="112.00">
        <route edges="-gneE4 -gneE3"/>
    </vehicle>
    <vehicle id="57" depart="114.00">
        <route edges="-gneE4 gneE6"/>
    </vehicle>
    <vehicle id="58" depart="116.00">
        <route edges="-gneE6 -gneE3"/>
    </vehicle>
    <vehicle id="59" depart="118.00">
        <route edges="-gneE6 -gneE2"/>
    </vehicle>
    <vehicle id="61" depart="122.00">
        <route edges="-gneE6 gneE4"/>
    </vehicle>
    <vehicle id="62" depart="124.00">
        <route edges="gneE2 -gneE3"/>
    </vehicle>
    <vehicle id="63" depart="126.00">
        <route edges="gneE2 gneE4"/>
    </vehicle>
    <vehicle id="64" depart="128.00">
        <route edges="gneE3 -gneE2"/>
    </vehicle>
    <vehicle id="65" depart="130.00">
        <route edges="gneE2 -gneE3"/>
    </vehicle>
    <vehicle id="67" depart="134.00">
        <route edges="gneE2 -gneE3"/>
    </vehicle>
    <vehicle id="69" depart="138.00">
        <route edges="gneE2 -gneE3"/>
    </vehicle>
    <vehicle id="72" depart="144.00">
        <route edges="-gneE4 -gneE3"/>
    </vehicle>
    <vehicle id="73" depart="146.00">
        <route edges="-gneE4 -gneE3"/>
    </vehicle>
    <vehicle id="74" depart="148.00">
        <route edges="-gneE4 -gneE2"/>
    </vehicle>
    <vehicle id="75" depart="150.00">
        <route edges="-gneE4 -gneE3"/>
    </vehicle>
    <vehicle id="76" depart="152.00">
        <route edges="-gneE4 gneE6"/>
    </vehicle>
    <vehicle id="78" depart="156.00">
        <route edges="-gneE4 -gneE3"/>
    </vehicle>
    <vehicle id="79" depart="158.00">
        <route edges="-gneE6 -gneE3"/>
    </vehicle>
    <vehicle id="80" depart="160.00">
        <route edges="gneE2 gneE6"/>
    </vehicle>
    <vehicle id="86" depart="172.00">
        <route edges="gneE2 gneE6"/>
    </vehicle>
    <vehicle id="88" depart="176.00">
        <route edges="-gneE6 gneE4"/>
    </vehicle>
    <vehicle id="89" depart="178.00">
        <route edges="-gneE6 -gneE2"/>
    </vehicle>
    <vehicle id="90" depart="180.00">
        <route edges="-gneE4 -gneE2"/>
    </vehicle>
    <vehicle id="91" depart="182.00">
        <route edges="gneE2 -gneE3"/>
    </vehicle>
    <vehicle id="92" depart="184.00">
        <route edges="gneE2 gneE4"/>
    </vehicle>
    <vehicle id="94" depart="188.00">
        <route edges="-gneE6 gneE4"/>
    </vehicle>
    <vehicle id="95" depart="190.00">
        <route edges="-gneE6 gneE4"/>
    </vehicle>
    <vehicle id="96" depart="192.00">
        <route edges="gneE2 -gneE3"/>
    </vehicle>
    <vehicle id="97" depart="194.00">
        <route edges="gneE2 gneE4"/>
    </vehicle>
    <vehicle id="98" depart="196.00">
        <route edges="gneE3 -gneE2"/>
    </vehicle>
    <vehicle id="99" depart="198.00">
        <route edges="-gneE6 gneE4"/>
    </vehicle>
    <vehicle id="100" depart="200.00">
        <route edges="-gneE4 -gneE2"/>
    </vehicle>
    <vehicle id="101" depart="202.00">
        <route edges="-gneE6 gneE4"/>
    </vehicle>
    <vehicle id="102" depart="204.00">
        <route edges="gneE3 gneE4"/>
    </vehicle>
    <vehicle id="103" depart="206.00">
        <route edges="-gneE6 -gneE3"/>
    </vehicle>
    <vehicle id="104" depart="208.00">
        <route edges="gneE2 -gneE3"/>
    </vehicle>
    <vehicle id="105" depart="210.00">
        <route edges="gneE2 gneE6"/>
    </vehicle>
    <vehicle id="106" depart="212.00">
        <route edges="-gneE4 -gneE3"/>
    </vehicle>
    <vehicle id="107" depart="214.00">
        <route edges="-gneE6 -gneE3"/>
    </vehicle>
    <vehicle id="110" depart="220.00">
        <route edges="gneE3 -gneE2"/>
    </vehicle>
    <vehicle id="111" depart="222.00">
        <route edges="gneE2 -gneE3"/>
    </vehicle>
    <vehicle id="112" depart="224.00">
        <route edges="-gneE6 -gneE3"/>
    </vehicle>
    <vehicle id="113" depart="226.00">
        <route edges="gneE3 gneE6"/>
    </vehicle>
    <vehicle id="114" depart="228.00">
        <route edges="gneE3 gneE6"/>
    </vehicle>
    <vehicle id="115" depart="230.00">
        <route edges="-gneE4 -gneE2"/>
    </vehicle>
    <vehicle id="116" depart="232.00">
        <route edges="gneE2 -gneE3"/>
    </vehicle>
    <vehicle id="118" depart="236.00">
        <route edges="-gneE4 gneE6"/>
    </vehicle>
    <vehicle id="119" depart="238.00">
        <route edges="gneE2 gneE6"/>
    </vehicle>
    <vehicle id="121" depart="242.00">
        <route edges="-gneE4 -gneE2"/>
    </vehicle>
    <vehicle id="122" depart="244.00">
        <route edges="gneE3 gneE4"/>
    </vehicle>
    <vehicle id="123" depart="246.00">
        <route edges="gneE3 gneE6"/>
    </vehicle>
    <vehicle id="124" depart="248.00">
        <route edges="gneE2 -gneE3"/>
    </vehicle>
    <vehicle id="125" depart="250.00">
        <route edges="-gneE6 -gneE3"/>
    </vehicle>
    <vehicle id="126" depart="252.00">
        <route edges="-gneE4 -gneE2"/>
    </vehicle>
    <vehicle id="127" depart="254.00">
        <route edges="gneE2 gneE4"/>
    </vehicle>
    <vehicle id="129" depart="258.00">
        <route edges="gneE2 -gneE3"/>
    </vehicle>
    <vehicle id="132" depart="264.00">
        <route edges="gneE3 gneE6"/>
    </vehicle>
    <vehicle id="134" depart="268.00">
        <route edges="gneE2 gneE6"/>
    </vehicle>
    <vehicle id="135" depart="270.00">
        <route edges="gneE3 -gneE2"/>
    </vehicle>
    <vehicle id="136" depart="272.00">
        <route edges="-gneE6 -gneE2"/>
    </vehicle>
    <vehicle id="137" depart="274.00">
        <route edges="-gneE6 gneE4"/>
    </vehicle>
    <vehicle id="138" depart="276.00">
        <route edges="-gneE6 gneE4"/>
    </vehicle>
    <vehicle id="139" depart="278.00">
        <route edges="gneE2 -gneE3"/>
    </vehicle>
    <vehicle id="140" depart="280.00">
        <route edges="gneE3 gneE6"/>
    </vehicle>
    <vehicle id="142" depart="284.00">
        <route edges="-gneE4 gneE6"/>
    </vehicle>
    <vehicle id="144" depart="288.00">
        <route edges="-gneE4 gneE6"/>
    </vehicle>
    <vehicle id="146" depart="292.00">
        <route edges="gneE2 gneE6"/>
    </vehicle>
    <vehicle id="147" depart="294.00">
        <route edges="-gneE4 -gneE3"/>
    </vehicle>
    <vehicle id="148" depart="296.00">
        <route edges="gneE2 gneE6"/>
    </vehicle>
    <vehicle id="149" depart="298.00">
        <route edges="-gneE4 -gneE3"/>
    </vehicle>
    <vehicle id="150" depart="300.00">
        <route edges="gneE3 gneE6"/>
    </vehicle>
    <vehicle id="151" depart="302.00">
        <route edges="-gneE4 gneE6"/>
    </vehicle>
    <vehicle id="152" depart="304.00">
        <route edges="-gneE6 -gneE3"/>
    </vehicle>
    <vehicle id="154" depart="308.00">
        <route edges="gneE2 -gneE3"/>
    </vehicle>
    <vehicle id="155" depart="310.00">
        <route edges="-gneE4 -gneE2"/>
    </vehicle>
    <vehicle id="156" depart="312.00">
        <route edges="gneE2 gneE6"/>
    </vehicle>
    <vehicle id="157" depart="314.00">
        <route edges="-gneE4 gneE6"/>
    </vehicle>
    <vehicle id="158" depart="316.00">
        <route edges="-gneE6 gneE4"/>
    </vehicle>
    <vehicle id="159" depart="318.00">
        <route edges="-gneE4 gneE6"/>
    </vehicle>
    <vehicle id="160" depart="320.00">
        <route edges="gneE2 gneE4"/>
    </vehicle>
    <vehicle id="161" depart="322.00">
        <route edges="-gneE6 -gneE3"/>
    </vehicle>
    <vehicle id="162" depart="324.00">
        <route edges="-gneE6 gneE4"/>
    </vehicle>
    <vehicle id="164" depart="328.00">
        <route edges="gneE3 -gneE2"/>
    </vehicle>
    <vehicle id="165" depart="330.00">
        <route edges="-gneE4 gneE6"/>
    </vehicle>
    <vehicle id="166" depart="332.00">
        <route edges="gneE2 -gneE3"/>
    </vehicle>
    <vehicle id="169" depart="338.00">
        <route edges="gneE2 gneE4"/>
    </vehicle>
    <vehicle id="170" depart="340.00">
        <route edges="-gneE6 -gneE2"/>
    </vehicle>
    <vehicle id="171" depart="342.00">
        <route edges="gneE2 gneE6"/>
    </vehicle>
    <vehicle id="173" depart="346.00">
        <route edges="gneE2 -gneE3"/>
    </vehicle>
    <vehicle id="174" depart="348.00">
        <route edges="gneE3 gneE6"/>
    </vehicle>
    <vehicle id="175" depart="350.00">
        <route edges="-gneE6 gneE4"/>
    </vehicle>
    <vehicle id="176" depart="352.00">
        <route edges="-gneE6 -gneE3"/>
    </vehicle>
    <vehicle id="177" depart="354.00">
        <route edges="-gneE6 gneE4"/>
    </vehicle>
    <vehicle id="178" depart="356.00">
        <route edges="-gneE4 gneE6"/>
    </vehicle>
    <vehicle id="179" depart="358.00">
        <route edges="gneE3 -gneE2"/>
    </vehicle>
    <vehicle id="180" depart="360.00">
        <route edges="-gneE4 gneE6"/>
    </vehicle>
    <vehicle id="182" depart="364.00">
        <route edges="gneE3 gneE6"/>
    </vehicle>
    <vehicle id="183" depart="366.00">
        <route edges="-gneE4 gneE6"/>
    </vehicle>
    <vehicle id="185" depart="370.00">
        <route edges="gneE2 -gneE3"/>
    </vehicle>
    <vehicle id="186" depart="372.00">
        <route edges="gneE3 gneE4"/>
    </vehicle>
    <vehicle id="187" depart="374.00">
        <route edges="gneE2 gneE6"/>
    </vehicle>
    <vehicle id="188" depart="376.00">
        <route edges="-gneE4 -gneE2"/>
    </vehicle>
    <vehicle id="190" depart="380.00">
        <route edges="gneE2 -gneE3"/>
    </vehicle>
    <vehicle id="191" depart="382.00">
        <route edges="gneE2 gneE4"/>
    </vehicle>
    <vehicle id="192" depart="384.00">
        <route edges="-gneE6 gneE4"/>
    </vehicle>
    <vehicle id="194" depart="388.00">
        <route edges="-gneE6 -gneE3"/>
    </vehicle>
    <vehicle id="195" depart="390.00">
        <route edges="gneE2 -gneE3"/>
    </vehicle>
    <vehicle id="196" depart="392.00">
        <route edges="gneE2 gneE6"/>
    </vehicle>
    <vehicle id="197" depart="394.00">
        <route edges="-gneE4 gneE6"/>
    </vehicle>
    <vehicle id="198" depart="396.00">
        <route edges="-gneE6 -gneE3"/>
    </vehicle>
    <vehicle id="199" depart="398.00">
        <route edges="-gneE4 -gneE2"/>
    </vehicle>
    <vehicle id="200" depart="400.00">
        <route edges="gneE2 gneE4"/>
    </vehicle>
    <vehicle id="201" depart="402.00">
        <route edges="-gneE6 -gneE3"/>
    </vehicle>
    <vehicle id="202" depart="404.00">
        <route edges="gneE2 gneE6"/>
    </vehicle>
    <vehicle id="204" depart="408.00">
        <route edges="-gneE6 gneE4"/>
    </vehicle>
    <vehicle id="206" depart="412.00">
        <route edges="gneE3 gneE6"/>
    </vehicle>
    <vehicle id="207" depart="414.00">
        <route edges="-gneE6 gneE4"/>
    </vehicle>
    <vehicle id="208" depart="416.00">
        <route edges="-gneE6 -gneE3"/>
    </vehicle>
    <vehicle id="209" depart="418.00">
        <route edges="gneE2 gneE6"/>
    </vehicle>
    <vehicle id="210" depart="420.00">
        <route edges="gneE3 -gneE2"/>
    </vehicle>
    <vehicle id="211" depart="422.00">
        <route edges="gneE2 gneE4"/>
    </vehicle>
    <vehicle id="212" depart="424.00">
        <route edges="gneE2 gneE4"/>
    </vehicle>
    <vehicle id="213" depart="426.00">
        <route edges="gneE2 -gneE3"/>
    </vehicle>
    <vehicle id="214" depart="428.00">
        <route edges="gneE3 gneE4"/>
    </vehicle>
    <vehicle id="215" depart="430.00">
        <route edges="gneE3 gneE4"/>
    </vehicle>
    <vehicle id="216" depart="432.00">
        <route edges="gneE2 gneE4"/>
    </vehicle>
    <vehicle id="217" depart="434.00">
        <route edges="-gneE4 gneE6"/>
    </vehicle>
    <vehicle id="218" depart="436.00">
        <route edges="-gneE6 -gneE3"/>
    </vehicle>
    <vehicle id="220" depart="440.00">
        <route edges="gneE3 -gneE2"/>
    </vehicle>
    <vehicle id="221" depart="442.00">
        <route edges="gneE2 gneE4"/>
    </vehicle>
    <vehicle id="222" depart="444.00">
        <route edges="gneE2 gneE4"/>
    </vehicle>
    <vehicle id="224" depart="448.00">
        <route edges="-gneE4 -gneE3"/>
    </vehicle>
    <vehicle id="225" depart="450.00">
        <route edges="gneE3 gneE6"/>
    </vehicle>
    <vehicle id="226" depart="452.00">
        <route edges="-gneE6 gneE4"/>
    </vehicle>
    <vehicle id="228" depart="456.00">
        <route edges="-gneE6 -gneE2"/>
    </vehicle>
    <vehicle id="229" depart="458.00">
        <route edges="gneE2 -gneE3"/>
    </vehicle>
    <vehicle id="230" depart="460.00">
        <route edges="gneE2 -gneE3"/>
    </vehicle>
    <vehicle id="231" depart="462.00">
        <route edges="gneE3 -gneE2"/>
    </vehicle>
    <vehicle id="232" depart="464.00">
        <route edges="-gneE4 -gneE3"/>
    </vehicle>
    <vehicle id="233" depart="466.00">
        <route edges="gneE3 gneE6"/>
    </vehicle>
    <vehicle id="234" depart="468.00">
        <route edges="gneE3 gneE6"/>
    </vehicle>
    <vehicle id="235" depart="470.00">
        <route edges="gneE3 -gneE2"/>
    </vehicle>
    <vehicle id="237" depart="474.00">
        <route edges="-gneE4 -gneE3"/>
    </vehicle>
    <vehicle id="238" depart="476.00">
        <route edges="-gneE4 -gneE3"/>
    </vehicle>
    <vehicle id="239" depart="478.00">
        <route edges="-gneE4 -gneE2"/>
    </vehicle>
    <vehicle id="240" depart="480.00">
        <route edges="gneE2 -gneE3"/>
    </vehicle>
    <vehicle id="242" depart="484.00">
        <route edges="gneE3 gneE4"/>
    </vehicle>
    <vehicle id="243" depart="486.00">
        <route edges="gneE2 -gneE3"/>
    </vehicle>
    <vehicle id="244" depart="488.00">
        <route edges="gneE3 gneE6"/>
    </vehicle>
    <vehicle id="246" depart="492.00">
        <route edges="gneE2 gneE4"/>
    </vehicle>
    <vehicle id="247" depart="494.00">
        <route edges="-gneE4 -gneE2"/>
    </vehicle>
    <vehicle id="248" depart="496.00">
        <route edges="-gneE6 -gneE3"/>
    </vehicle>
    <vehicle id="249" depart="498.00">
        <route edges="gneE2 gneE4"/>
    </vehicle>
    <vehicle id="250" depart="500.00">
        <route edges="gneE3 -gneE2"/>
    </vehicle>
    <vehicle id="251" depart="502.00">
        <route edges="gneE2 gneE6"/>
    </vehicle>
    <vehicle id="253" depart="506.00">
        <route edges="gneE2 gneE4"/>
    </vehicle>
    <vehicle id="254" depart="508.00">
        <route edges="-gneE4 -gneE2"/>
    </vehicle>
    <vehicle id="255" depart="510.00">
        <route edges="gneE3 -gneE2"/>
    </vehicle>
    <vehicle id="256" depart="512.00">
        <route edges="-gneE4 -gneE2"/>
    </vehicle>
    <vehicle id="257" depart="514.00">
        <route edges="-gneE6 -gneE3"/>
    </vehicle>
    <vehicle id="258" depart="516.00">
        <route edges="-gneE6 -gneE2"/>
    </vehicle>
    <vehicle id="259" depart="518.00">
        <route edges="gneE2 gneE4"/>
    </vehicle>
    <vehicle id="260" depart="520.00">
        <route edges="gneE2 gneE4"/>
    </vehicle>
    <vehicle id="261" depart="522.00">
        <route edges="gneE2 gneE6"/>
    </vehicle>
    <vehicle id="262" depart="524.00">
        <route edges="-gneE4 -gneE3"/>
    </vehicle>
    <vehicle id="265" depart="530.00">
        <route edges="gneE3 gneE6"/>
    </vehicle>
    <vehicle id="266" depart="532.00">
        <route edges="-gneE4 gneE6"/>
    </vehicle>
    <vehicle id="267" depart="534.00">
        <route edges="gneE3 gneE4"/>
    </vehicle>
    <vehicle id="268" depart="536.00">
        <route edges="gneE2 -gneE3"/>
    </vehicle>
    <vehicle id="269" depart="538.00">
        <route edges="gneE2 -gneE3"/>
    </vehicle>
    <vehicle id="271" depart="542.00">
        <route edges="-gneE4 -gneE3"/>
    </vehicle>
    <vehicle id="272" depart="544.00">
        <route edges="gneE3 gneE4"/>
    </vehicle>
    <vehicle id="274" depart="548.00">
        <route edges="-gneE6 -gneE3"/>
    </vehicle>
    <vehicle id="275" depart="550.00">
        <route edges="-gneE4 -gneE2"/>
    </vehicle>
    <vehicle id="276" depart="552.00">
        <route edges="-gneE6 -gneE2"/>
    </vehicle>
    <vehicle id="278" depart="556.00">
        <route edges="gneE3 -gneE2"/>
    </vehicle>
    <vehicle id="279" depart="558.00">
        <route edges="-gneE4 -gneE3"/>
    </vehicle>
    <vehicle id="280" depart="560.00">
        <route edges="gneE2 -gneE3"/>
    </vehicle>
    <vehicle id="281" depart="562.00">
        <route edges="gneE2 gneE6"/>
    </vehicle>
    <vehicle id="282" depart="564.00">
        <route edges="-gneE4 gneE6"/>
    </vehicle>
    <vehicle id="283" depart="566.00">
        <route edges="gneE3 gneE4"/>
    </vehicle>
    <vehicle id="284" depart="568.00">
        <route edges="gneE3 -gneE2"/>
    </vehicle>
    <vehicle id="285" depart="570.00">
        <route edges="-gneE4 gneE6"/>
    </vehicle>
    <vehicle id="286" depart="572.00">
        <route edges="gneE3 gneE6"/>
    </vehicle>
    <vehicle id="290" depart="580.00">
        <route edges="gneE2 gneE4"/>
    </vehicle>
    <vehicle id="291" depart="582.00">
        <route edges="gneE3 gneE6"/>
    </vehicle>
    <vehicle id="292" depart="584.00">
        <route edges="-gneE6 gneE4"/>
    </vehicle>
    <vehicle id="294" depart="588.00">
        <route edges="gneE3 gneE6"/>
    </vehicle>
    <vehicle id="297" depart="594.00">
        <route edges="gneE3 gneE4"/>
    </vehicle>
    <vehicle id="300" depart="600.00">
        <route edges="-gneE6 gneE4"/>
    </vehicle>
    <vehicle id="301" depart="602.00">
        <route edges="-gneE4 -gneE3"/>
    </vehicle>
    <vehicle id="302" depart="604.00">
        <route edges="gneE3 gneE4"/>
    </vehicle>
    <vehicle id="303" depart="606.00">
        <route edges="gneE3 -gneE2"/>
    </vehicle>
    <vehicle id="304" depart="608.00">
        <route edges="gneE3 gneE6"/>
    </vehicle>
    <vehicle id="305" depart="610.00">
        <route edges="-gneE6 gneE4"/>
    </vehicle>
    <vehicle id="306" depart="612.00">
        <route edges="gneE2 gneE4"/>
    </vehicle>
    <vehicle id="307" depart="614.00">
        <route edges="-gneE4 -gneE2"/>
    </vehicle>
    <vehicle id="309" depart="618.00">
        <route edges="gneE2 gneE4"/>
    </vehicle>
    <vehicle id="310" depart="620.00">
        <route edges="-gneE4 gneE6"/>
    </vehicle>
    <vehicle id="312" depart="624.00">
        <route edges="gneE3 gneE4"/>
    </vehicle>
    <vehicle id="316" depart="632.00">
        <route edges="-gneE6 -gneE3"/>
    </vehicle>
    <vehicle id="317" depart="634.00">
        <route edges="gneE2 -gneE3"/>
    </vehicle>
    <vehicle id="318" depart="636.00">
        <route edges="-gneE6 -gneE2"/>
    </vehicle>
    <vehicle id="319" depart="638.00">
        <route edges="-gneE6 -gneE2"/>
    </vehicle>
    <vehicle id="320" depart="640.00">
        <route edges="-gneE6 -gneE3"/>
    </vehicle>
    <vehicle id="321" depart="642.00">
        <route edges="-gneE6 -gneE3"/>
    </vehicle>
    <vehicle id="322" depart="644.00">
        <route edges="-gneE6 -gneE3"/>
    </vehicle>
    <vehicle id="323" depart="646.00">
        <route edges="gneE3 gneE4"/>
    </vehicle>
    <vehicle id="324" depart="648.00">
        <route edges="gneE2 gneE4"/>
    </vehicle>
    <vehicle id="326" depart="652.00">
        <route edges="-gneE4 gneE6"/>
    </vehicle>
    <vehicle id="330" depart="660.00">
        <route edges="-gneE6 -gneE3"/>
    </vehicle>
    <vehicle id="331" depart="662.00">
        <route edges="-gneE6 -gneE2"/>
    </vehicle>
    <vehicle id="332" depart="664.00">
        <route edges="gneE3 -gneE2"/>
    </vehicle>
    <vehicle id="333" depart="666.00">
        <route edges="gneE3 -gneE2"/>
    </vehicle>
    <vehicle id="334" depart="668.00">
        <route edges="-gneE4 -gneE3"/>
    </vehicle>
    <vehicle id="335" depart="670.00">
        <route edges="-gneE6 gneE4"/>
    </vehicle>
    <vehicle id="338" depart="676.00">
        <route edges="gneE3 gneE4"/>
    </vehicle>
    <vehicle id="342" depart="684.00">
        <route edges="gneE3 -gneE2"/>
    </vehicle>
    <vehicle id="343" depart="686.00">
        <route edges="-gneE4 -gneE3"/>
    </vehicle>
    <vehicle id="344" depart="688.00">
        <route edges="-gneE6 gneE4"/>
    </vehicle>
    <vehicle id="345" depart="690.00">
        <route edges="-gneE4 -gneE3"/>
    </vehicle>
    <vehicle id="346" depart="692.00">
        <route edges="gneE3 -gneE2"/>
    </vehicle>
    <vehicle id="347" depart="694.00">
        <route edges="-gneE6 gneE4"/>
    </vehicle>
    <vehicle id="348" depart="696.00">
        <route edges="-gneE4 -gneE3"/>
    </vehicle>
    <vehicle id="350" depart="700.00">
        <route edges="gneE3 -gneE2"/>
    </vehicle>
    <vehicle id="351" depart="702.00">
        <route edges="-gneE4 -gneE3"/>
    </vehicle>
    <vehicle id="356" depart="712.00">
        <route edges="-gneE4 gneE6"/>
    </vehicle>
    <vehicle id="357" depart="714.00">
        <route edges="-gneE6 -gneE2"/>
    </vehicle>
    <vehicle id="358" depart="716.00">
        <route edges="gneE3 gneE4"/>
    </vehicle>
    <vehicle id="360" depart="720.00">
        <route edges="-gneE6 -gneE2"/>
    </vehicle>
    <vehicle id="361" depart="722.00">
        <route edges="-gneE4 -gneE2"/>
    </vehicle>
    <vehicle id="362" depart="724.00">
        <route edges="-gneE6 gneE4"/>
    </vehicle>
    <vehicle id="364" depart="728.00">
        <route edges="-gneE6 -gneE2"/>
    </vehicle>
    <vehicle id="365" depart="730.00">
        <route edges="gneE2 -gneE3"/>
    </vehicle>
    <vehicle id="366" depart="732.00">
        <route edges="-gneE4 -gneE2"/>
    </vehicle>
    <vehicle id="369" depart="738.00">
        <route edges="-gneE4 gneE6"/>
    </vehicle>
    <vehicle id="370" depart="740.00">
        <route edges="-gneE4 -gneE2"/>
    </vehicle>
    <vehicle id="371" depart="742.00">
        <route edges="gneE2 -gneE3"/>
    </vehicle>
    <vehicle id="372" depart="744.00">
        <route edges="gneE3 -gneE2"/>
    </vehicle>
    <vehicle id="373" depart="746.00">
        <route edges="gneE2 -gneE3"/>
    </vehicle>
    <vehicle id="374" depart="748.00">
        <route edges="-gneE4 gneE6"/>
    </vehicle>
    <vehicle id="376" depart="752.00">
        <route edges="gneE3 gneE6"/>
    </vehicle>
    <vehicle id="380" depart="760.00">
        <route edges="-gneE4 -gneE3"/>
    </vehicle>
    <vehicle id="382" depart="764.00">
        <route edges="-gneE6 -gneE2"/>
    </vehicle>
    <vehicle id="383" depart="766.00">
        <route edges="gneE2 gneE4"/>
    </vehicle>
    <vehicle id="384" depart="768.00">
        <route edges="gneE3 gneE6"/>
    </vehicle>
    <vehicle id="385" depart="770.00">
        <route edges="gneE2 -gneE3"/>
    </vehicle>
    <vehicle id="386" depart="772.00">
        <route edges="-gneE4 -gneE3"/>
    </vehicle>
    <vehicle id="387" depart="774.00">
        <route edges="-gneE6 -gneE2"/>
    </vehicle>
    <vehicle id="388" depart="776.00">
        <route edges="-gneE6 -gneE2"/>
    </vehicle>
    <vehicle id="390" depart="780.00">
        <route edges="gneE2 -gneE3"/>
    </vehicle>
    <vehicle id="395" depart="790.00">
        <route edges="gneE2 gneE6"/>
    </vehicle>
    <vehicle id="396" depart="792.00">
        <route edges="gneE3 gneE4"/>
    </vehicle>
    <vehicle id="398" depart="796.00">
        <route edges="gneE3 -gneE2"/>
    </vehicle>
    <vehicle id="401" depart="802.00">
        <route edges="gneE2 gneE6"/>
    </vehicle>
    <vehicle id="402" depart="804.00">
        <route edges="-gneE4 gneE6"/>
    </vehicle>
    <vehicle id="403" depart="806.00">
        <route edges="-gneE4 -gneE2"/>
    </vehicle>
    <vehicle id="404" depart="808.00">
        <route edges="gneE2 -gneE3"/>
    </vehicle>
    <vehicle id="406" depart="812.00">
        <route edges="gneE2 gneE6"/>
    </vehicle>
    <vehicle id="407" depart="814.00">
        <route edges="gneE3 gneE4"/>
    </vehicle>
    <vehicle id="408" depart="816.00">
        <route edges="-gneE6 gneE4"/>
    </vehicle>
    <vehicle id="409" depart="818.00">
        <route edges="gneE2 gneE4"/>
    </vehicle>
    <vehicle id="410" depart="820.00">
        <route edges="gneE2 -gneE3"/>
    </vehicle>
    <vehicle id="412" depart="824.00">
        <route edges="-gneE4 -gneE3"/>
    </vehicle>
    <vehicle id="413" depart="826.00">
        <route edges="gneE3 gneE6"/>
    </vehicle>
    <vehicle id="414" depart="828.00">
        <route edges="-gneE4 gneE6"/>
    </vehicle>
    <vehicle id="416" depart="832.00">
        <route edges="gneE2 gneE6"/>
    </vehicle>
    <vehicle id="417" depart="834.00">
        <route edges="-gneE4 -gneE2"/>
    </vehicle>
    <vehicle id="419" depart="838.00">
        <route edges="gneE2 gneE6"/>
    </vehicle>
    <vehicle id="420" depart="840.00">
        <route edges="-gneE4 -gneE2"/>
    </vehicle>
    <vehicle id="425" depart="850.00">
        <route edges="-gneE4 gneE6"/>
    </vehicle>
    <vehicle id="427" depart="854.00">
        <route edges="gneE2 gneE4"/>
    </vehicle>
    <vehicle id="428" depart="856.00">
        <route edges="gneE2 gneE6"/>
    </vehicle>
    <vehicle id="430" depart="860.00">
        <route edges="-gneE4 -gneE2"/>
    </vehicle>
    <vehicle id="431" depart="862.00">
        <route edges="gneE3 gneE6"/>
    </vehicle>
    <vehicle id="432" depart="864.00">
        <route edges="gneE2 -gneE3"/>
    </vehicle>