<?xml version="1.0" encoding="UTF-8"?>

<!-- generated on Sun Sep 23 21:15:46 2018 by SUMO duarouter Version 0.30.0
<?xml version="1.0" encoding="UTF-8"?>

<configuration xmlns:xsi="http://www.w3.org/2001/XMLSchema-instance" xsi:noNamespaceSchemaLocation="http://sumo.dlr.de/xsd/duarouterConfiguration.xsd">

    <input>
        <net-file value="spider/spider.net.xml"/>
        <route-files value="trips.trips.xml"/>
    </input>

    <output>
        <output-file value="spider/route/spider-1.9-9.rou.xml"/>
    </output>

    <processing>
        <ignore-errors value="true"/>
    </processing>

    <time>
        <begin value="0.0"/>
        <end value="5400.0"/>
    </time>

    <report>
        <no-warnings value="true"/>
        <no-step-log value="true"/>
    </report>

</configuration>
-->

<routes xmlns:xsi="http://www.w3.org/2001/XMLSchema-instance" xsi:noNamespaceSchemaLocation="http://sumo.dlr.de/xsd/routes_file.xsd">
    <vehicle id="0" depart="0.00">
        <route edges="gneE7 8/1to1/1 1/1to2/1"/>
    </vehicle>
    <vehicle id="1" depart="1.90">
        <route edges="gneE4 6/1to5/1 5/1to4/1 4/1to3/1 3/1to4/1"/>
    </vehicle>
    <vehicle id="2" depart="3.80">
        <route edges="gneE5 4/1to3/1 3/1to2/1 2/1to1/1 1/1to8/1"/>
    </vehicle>
    <vehicle id="3" depart="5.70">
        <route edges="gneE2 3/1to4/1 4/1to5/1 5/1to6/1 6/1to5/1"/>
    </vehicle>
    <vehicle id="4" depart="7.60">
        <route edges="gneE4 6/1to7/1 7/1to8/1 8/1to1/1 1/1to2/1 2/1to3/1"/>
    </vehicle>
    <vehicle id="5" depart="9.50">
        <route edges="gneE5 4/1to3/1 3/1to2/1 2/1to1/1 1/1to8/1"/>
    </vehicle>
    <vehicle id="6" depart="11.40">
        <route edges="gneE7 8/1to1/1 1/1to2/1 2/1to3/1 3/1to4/1 4/1to3/1"/>
    </vehicle>
    <vehicle id="7" depart="13.30">
        <route edges="gneE3 7/1to8/1 8/1to1/1 1/1to2/1 2/1to3/1"/>
    </vehicle>
    <vehicle id="8" depart="15.20">
        <route edges="gneE1 1/1to2/1 2/1to3/1 3/1to4/1"/>
    </vehicle>
    <vehicle id="9" depart="17.10">
        <route edges="gneE2 3/1to4/1 4/1to5/1 5/1to6/1 6/1to7/1"/>
    </vehicle>
    <vehicle id="10" depart="19.00">
        <route edges="gneE1 1/1to2/1 2/1to3/1 3/1to4/1 4/1to5/1 5/1to4/1"/>
    </vehicle>
    <vehicle id="11" depart="20.90">
        <route edges="gneE3 7/1to8/1 8/1to1/1 1/1to2/1"/>
    </vehicle>
    <vehicle id="12" depart="22.80">
        <route edges="gneE2 3/1to2/1 2/1to1/1 1/1to8/1 8/1to1/1"/>
    </vehicle>
    <vehicle id="13" depart="24.70">
        <route edges="gneE5 4/1to3/1 3/1to2/1 2/1to1/1"/>
    </vehicle>
    <vehicle id="14" depart="26.60">
        <route edges="gneE4 6/1to7/1 7/1to8/1 8/1to1/1 1/1to2/1"/>
    </vehicle>
    <vehicle id="15" depart="28.50">
        <route edges="gneE0 5/1to4/1 4/1to3/1 3/1to2/1"/>
    </vehicle>
    <vehicle id="16" depart="30.40">
        <route edges="gneE7 8/1to7/1 7/1to6/1 6/1to5/1 5/1to6/1"/>
    </vehicle>
    <vehicle id="17" depart="32.30">
        <route edges="gneE6 2/1to3/1 3/1to4/1 4/1to5/1 5/1to6/1 6/1to5/1"/>
    </vehicle>
    <vehicle id="18" depart="34.20">
        <route edges="gneE2 3/1to4/1 4/1to5/1 5/1to6/1"/>
    </vehicle>
    <vehicle id="19" depart="36.10">
        <route edges="gneE3 7/1to8/1 8/1to1/1 1/1to2/1"/>
    </vehicle>
    <vehicle id="20" depart="38.00">
        <route edges="gneE2 3/1to4/1 4/1to5/1 5/1to6/1"/>
    </vehicle>
    <vehicle id="21" depart="39.90">
        <route edges="gneE2 3/1to4/1 4/1to5/1"/>
    </vehicle>
    <vehicle id="22" depart="41.80">
        <route edges="gneE2 3/1to2/1 2/1to1/1"/>
    </vehicle>
    <vehicle id="23" depart="43.70">
        <route edges="gneE1 1/1to8/1 8/1to7/1 7/1to6/1 6/1to7/1"/>
    </vehicle>
    <vehicle id="24" depart="45.60">
        <route edges="gneE4 6/1to5/1 5/1to4/1 4/1to3/1 3/1to4/1"/>
    </vehicle>
    <vehicle id="25" depart="47.50">
        <route edges="gneE4 6/1to7/1 7/1to8/1"/>
    </vehicle>
    <vehicle id="26" depart="49.40">
        <route edges="gneE3 7/1to6/1 6/1to5/1 5/1to4/1 4/1to5/1"/>
    </vehicle>
    <vehicle id="27" depart="51.30">
        <route edges="gneE5 4/1to3/1 3/1to2/1 2/1to1/1 1/1to2/1"/>
    </vehicle>
    <vehicle id="28" depart="53.20">
        <route edges="gneE4 6/1to5/1 5/1to4/1 4/1to3/1"/>
    </vehicle>
    <vehicle id="29" depart="55.10">
        <route edges="gneE7 8/1to1/1 1/1to2/1 2/1to3/1"/>
    </vehicle>
    <vehicle id="30" depart="57.00">
        <route edges="gneE6 2/1to1/1 1/1to8/1 8/1to7/1 7/1to6/1"/>
    </vehicle>
    <vehicle id="31" depart="58.90">
        <route edges="gneE5 4/1to3/1 3/1to2/1 2/1to1/1 1/1to8/1"/>
    </vehicle>
    <vehicle id="32" depart="60.80">
        <route edges="gneE7 8/1to1/1 1/1to2/1 2/1to3/1 3/1to4/1 4/1to5/1"/>
    </vehicle>
    <vehicle id="33" depart="62.70">
        <route edges="gneE1 1/1to8/1 8/1to7/1"/>
    </vehicle>
    <vehicle id="34" depart="64.60">
        <route edges="gneE2 3/1to4/1 4/1to5/1 5/1to6/1 6/1to5/1"/>
    </vehicle>
    <vehicle id="35" depart="66.50">
        <route edges="gneE7 8/1to7/1 7/1to6/1 6/1to5/1"/>
    </vehicle>
    <vehicle id="36" depart="68.40">
        <route edges="gneE4 6/1to7/1 7/1to8/1 8/1to1/1 1/1to2/1 2/1to3/1"/>
    </vehicle>
    <vehicle id="37" depart="70.30">
        <route edges="gneE7 8/1to7/1 7/1to6/1"/>
    </vehicle>
    <vehicle id="38" depart="72.20">
        <route edges="gneE1 1/1to2/1 2/1to3/1 3/1to4/1"/>
    </vehicle>
    <vehicle id="39" depart="74.10">
        <route edges="gneE1 1/1to2/1 2/1to3/1 3/1to4/1"/>
    </vehicle>
    <vehicle id="40" depart="76.00">
        <route edges="gneE3 7/1to8/1 8/1to1/1 1/1to2/1 2/1to3/1 3/1to4/1"/>
    </vehicle>
    <vehicle id="41" depart="77.90">
        <route edges="gneE1 1/1to2/1 2/1to3/1 3/1to4/1"/>
    </vehicle>
    <vehicle id="42" depart="79.80">
        <route edges="gneE1 1/1to8/1 8/1to7/1 7/1to6/1"/>
    </vehicle>
    <vehicle id="43" depart="81.70">
        <route edges="gneE6 2/1to1/1 1/1to8/1"/>
    </vehicle>
    <vehicle id="44" depart="83.60">
        <route edges="5/1to4/1 4/1to3/1 3/1to2/1 2/1to1/1 1/1to8/1 8/1to1/1"/>
    </vehicle>
    <vehicle id="45" depart="85.50">
        <route edges="gneE6 2/1to1/1 1/1to8/1 8/1to7/1 7/1to6/1"/>
    </vehicle>
    <vehicle id="46" depart="87.40">
        <route edges="gneE1 1/1to2/1 2/1to3/1 3/1to4/1"/>
    </vehicle>
    <vehicle id="47" depart="89.30">
        <route edges="gneE7 8/1to7/1 7/1to6/1 6/1to5/1"/>
    </vehicle>
    <vehicle id="48" depart="91.20">
        <route edges="gneE1 1/1to2/1 2/1to3/1 3/1to4/1 4/1to5/1 5/1to6/1"/>
    </vehicle>
    <vehicle id="49" depart="93.10">
        <route edges="gneE1 1/1to2/1 2/1to3/1 3/1to4/1"/>
    </vehicle>
    <vehicle id="50" depart="95.00">
        <route edges="gneE7 8/1to1/1 1/1to2/1 2/1to3/1 3/1to4/1"/>
    </vehicle>
    <vehicle id="51" depart="96.90">
        <route edges="gneE3 7/1to8/1 8/1to1/1 1/1to2/1"/>
    </vehicle>
    <vehicle id="52" depart="98.80">
        <route edges="gneE2 3/1to4/1 4/1to5/1 5/1to6/1 6/1to7/1 7/1to6/1"/>
    </vehicle>
    <vehicle id="53" depart="100.70">
        <route edges="gneE2 3/1to4/1 4/1to5/1 5/1to6/1 6/1to7/1 7/1to8/1"/>
    </vehicle>
    <vehicle id="54" depart="102.60">
        <route edges="gneE4 6/1to5/1 5/1to4/1 4/1to3/1"/>
    </vehicle>
    <vehicle id="55" depart="104.50">
        <route edges="gneE2 3/1to4/1 4/1to5/1 5/1to6/1"/>
    </vehicle>
    <vehicle id="56" depart="106.40">
        <route edges="1/1to8/1 8/1to7/1 7/1to6/1 6/1to5/1"/>
    </vehicle>
    <vehicle id="57" depart="108.30">
        <route edges="gneE3 7/1to6/1 6/1to5/1 5/1to4/1 4/1to3/1"/>
    </vehicle>
    <vehicle id="58" depart="110.20">
        <route edges="gneE7 8/1to1/1 1/1to2/1 2/1to3/1 3/1to4/1 4/1to5/1"/>
    </vehicle>
    <vehicle id="59" depart="112.10">
        <route edges="gneE5 4/1to3/1 3/1to2/1 2/1to1/1 1/1to8/1 8/1to1/1"/>
    </vehicle>
    <vehicle id="60" depart="114.00">
        <route edges="gneE0 5/1to6/1 6/1to7/1 7/1to8/1"/>
    </vehicle>
    <vehicle id="61" depart="115.90">
        <route edges="gneE5 4/1to3/1 3/1to2/1 2/1to1/1"/>
    </vehicle>
    <vehicle id="62" depart="117.80">
        <route edges="gneE0 5/1to6/1 6/1to7/1 7/1to8/1"/>
    </vehicle>
    <vehicle id="63" depart="119.70">
        <route edges="gneE4 6/1to5/1 5/1to4/1"/>
    </vehicle>
    <vehicle id="64" depart="121.60">
        <route edges="gneE3 7/1to8/1 8/1to1/1 1/1to2/1"/>
    </vehicle>
    <vehicle id="65" depart="123.50">
        <route edges="gneE4 6/1to7/1 7/1to8/1"/>
    </vehicle>
    <vehicle id="66" depart="125.40">
        <route edges="gneE1 1/1to2/1 2/1to3/1 3/1to4/1"/>
    </vehicle>
    <vehicle id="67" depart="127.30">
        <route edges="gneE3 7/1to6/1 6/1to5/1 5/1to4/1"/>
    </vehicle>
    <vehicle id="68" depart="129.20">
        <route edges="gneE7 8/1to7/1 7/1to6/1"/>
    </vehicle>
    <vehicle id="69" depart="131.10">
        <route edges="gneE0 5/1to4/1 4/1to3/1 3/1to2/1 2/1to3/1"/>
    </vehicle>
    <vehicle id="70" depart="133.00">
        <route edges="gneE4 6/1to5/1 5/1to4/1 4/1to3/1 3/1to4/1"/>
    </vehicle>
    <vehicle id="71" depart="134.90">
        <route edges="gneE3 7/1to8/1 8/1to1/1 1/1to2/1 2/1to3/1 3/1to4/1"/>
    </vehicle>
    <vehicle id="72" depart="136.80">
        <route edges="gneE6 2/1to3/1 3/1to4/1"/>
    </vehicle>
    <vehicle id="73" depart="138.70">
        <route edges="gneE2 3/1to4/1 4/1to5/1"/>
    </vehicle>
    <vehicle id="74" depart="140.60">
        <route edges="1/1to2/1 2/1to3/1 3/1to4/1 4/1to5/1 5/1to6/1 6/1to5/1"/>
    </vehicle>
    <vehicle id="75" depart="142.50">
        <route edges="gneE1 1/1to8/1 8/1to7/1 7/1to6/1 6/1to5/1"/>
    </vehicle>
    <vehicle id="76" depart="144.40">
        <route edges="gneE6 2/1to1/1 1/1to8/1 8/1to7/1 7/1to8/1"/>
    </vehicle>
    <vehicle id="77" depart="146.30">
        <route edges="gneE0 5/1to4/1 4/1to3/1"/>
    </vehicle>
    <vehicle id="78" depart="148.20">
        <route edges="gneE3 7/1to8/1 8/1to1/1 1/1to2/1"/>
    </vehicle>
    <vehicle id="79" depart="150.10">
        <route edges="gneE1 1/1to2/1 2/1to3/1"/>
    </vehicle>
    <vehicle id="80" depart="152.00">
        <route edges="gneE1 1/1to8/1 8/1to7/1 7/1to6/1 6/1to7/1"/>
    </vehicle>
    <vehicle id="81" depart="153.90">
        <route edges="gneE3 7/1to8/1 8/1to1/1 1/1to2/1"/>
    </vehicle>
    <vehicle id="82" depart="155.80">
        <route edges="7/1to8/1 8/1to1/1 1/1to2/1 2/1to3/1"/>
    </vehicle>
    <vehicle id="83" depart="157.70">
        <route edges="gneE3 7/1to6/1 6/1to5/1 5/1to4/1 4/1to5/1"/>
    </vehicle>
    <vehicle id="84" depart="159.60">
        <route edges="gneE2 3/1to2/1 2/1to1/1 1/1to8/1 8/1to1/1"/>
    </vehicle>
    <vehicle id="85" depart="161.50">
        <route edges="gneE4 6/1to7/1 7/1to8/1"/>
    </vehicle>
    <vehicle id="86" depart="163.40">
        <route edges="gneE4 6/1to7/1 7/1to8/1 8/1to1/1 1/1to2/1 2/1to1/1"/>
    </vehicle>
    <vehicle id="87" depart="165.30">
        <route edges="gneE5 4/1to3/1 3/1to2/1 2/1to1/1 1/1to8/1"/>
    </vehicle>
    <vehicle id="88" depart="167.20">
        <route edges="gneE5 4/1to3/1 3/1to2/1 2/1to1/1 1/1to8/1"/>
    </vehicle>
    <vehicle id="89" depart="169.10">
        <route edges="gneE4 6/1to7/1 7/1to8/1 8/1to1/1 1/1to2/1 2/1to1/1"/>
    </vehicle>
    <vehicle id="90" depart="171.00">
        <route edges="gneE1 1/1to2/1 2/1to3/1 3/1to4/1 4/1to5/1 5/1to6/1"/>
    </vehicle>
    <vehicle id="91" depart="172.90">
        <route edges="gneE3 7/1to8/1 8/1to1/1 1/1to2/1 2/1to3/1"/>
    </vehicle>
    <vehicle id="92" depart="174.80">
        <route edges="gneE4 6/1to7/1 7/1to8/1 8/1to1/1"/>
    </vehicle>
    <vehicle id="93" depart="176.70">
        <route edges="gneE0 5/1to6/1 6/1to7/1"/>
    </vehicle>
    <vehicle id="94" depart="178.60">
        <route edges="gneE6 2/1to3/1 3/1to4/1 4/1to5/1 5/1to4/1"/>
    </vehicle>
    <vehicle id="95" depart="180.50">
        <route edges="gneE0 5/1to4/1 4/1to3/1 3/1to2/1 2/1to1/1 1/1to2/1"/>
    </vehicle>
    <vehicle id="96" depart="182.40">
        <route edges="gneE0 5/1to4/1 4/1to3/1 3/1to2/1"/>
    </vehicle>
    <vehicle id="97" depart="184.30">
        <route edges="gneE7 8/1to1/1 1/1to2/1"/>
    </vehicle>
    <vehicle id="98" depart="186.20">
        <route edges="gneE6 2/1to3/1 3/1to4/1"/>
    </vehicle>
    <vehicle id="99" depart="188.10">
        <route edges="gneE6 2/1to1/1 1/1to8/1 8/1to7/1"/>
    </vehicle>
    <vehicle id="100" depart="190.00">
        <route edges="gneE1 1/1to2/1 2/1to3/1"/>
    </vehicle>
    <vehicle id="101" depart="191.90">
        <route edges="gneE1 1/1to2/1 2/1to3/1 3/1to4/1 4/1to5/1"/>
    </vehicle>
    <vehicle id="102" depart="193.80">
        <route edges="gneE6 2/1to3/1 3/1to4/1 4/1to5/1 5/1to4/1"/>
    </vehicle>
    <vehicle id="103" depart="195.70">
        <route edges="gneE6 2/1to1/1 1/1to8/1 8/1to7/1"/>
    </vehicle>
    <vehicle id="104" depart="197.60">
        <route edges="gneE2 3/1to4/1 4/1to5/1 5/1to6/1 6/1to7/1 7/1to6/1"/>
    </vehicle>
    <vehicle id="105" depart="199.50">
        <route edges="gneE0 5/1to4/1 4/1to3/1"/>
    </vehicle>
    <vehicle id="106" depart="201.40">
        <route edges="gneE1 1/1to2/1 2/1to3/1"/>
    </vehicle>
    <vehicle id="107" depart="203.30">
        <route edges="gneE6 2/1to1/1 1/1to8/1 8/1to7/1"/>
    </vehicle>
    <vehicle id="108" depart="205.20">
        <route edges="gneE7 8/1to1/1 1/1to2/1 2/1to3/1 3/1to4/1 4/1to3/1"/>
    </vehicle>
    <vehicle id="109" depart="207.10">
        <route edges="gneE1 1/1to2/1 2/1to3/1 3/1to4/1 4/1to5/1"/>
    </vehicle>
    <vehicle id="110" depart="209.00">
        <route edges="gneE1 1/1to8/1 8/1to7/1 7/1to6/1 6/1to5/1"/>
    </vehicle>
    <vehicle id="111" depart="210.90">
        <route edges="gneE1 1/1to8/1 8/1to7/1"/>
    </vehicle>
    <vehicle id="112" depart="212.80">
        <route edges="gneE3 7/1to8/1 8/1to1/1 1/1to2/1 2/1to1/1"/>
    </vehicle>
    <vehicle id="113" depart="214.70">
        <route edges="gneE4 6/1to7/1 7/1to8/1 8/1to1/1 1/1to8/1"/>
    </vehicle>
    <vehicle id="114" depart="216.60">
        <route edges="gneE0 5/1to6/1 6/1to7/1 7/1to8/1"/>
    </vehicle>
    <vehicle id="115" depart="218.50">
        <route edges="gneE4 6/1to5/1 5/1to4/1 4/1to3/1 3/1to2/1"/>
    </vehicle>
    <vehicle id="116" depart="220.40">
        <route edges="gneE1 1/1to8/1 8/1to7/1"/>
    </vehicle>
    <vehicle id="117" depart="222.30">
        <route edges="gneE7 8/1to7/1 7/1to6/1 6/1to5/1"/>
    </vehicle>
    <vehicle id="118" depart="224.20">
        <route edges="gneE5 4/1to3/1 3/1to2/1 2/1to1/1 1/1to8/1 8/1to7/1"/>
    </vehicle>
    <vehicle id="119" depart="226.10">
        <route edges="gneE5 4/1to3/1 3/1to2/1 2/1to1/1 1/1to8/1 8/1to1/1"/>
    </vehicle>
    <vehicle id="120" depart="228.00">
        <route edges="gneE5 4/1to5/1 5/1to6/1 6/1to7/1 7/1to6/1"/>
    </vehicle>
    <vehicle id="121" depart="229.90">
        <route edges="gneE0 5/1to6/1 6/1to7/1"/>
    </vehicle>
    <vehicle id="122" depart="231.80">
        <route edges="gneE3 7/1to8/1 8/1to1/1 1/1to2/1 2/1to3/1 3/1to4/1"/>
    </vehicle>
    <vehicle id="123" depart="233.70">
        <route edges="gneE3 7/1to6/1 6/1to5/1"/>
    </vehicle>
    <vehicle id="124" depart="235.60">
        <route edges="gneE7 8/1to1/1 1/1to2/1"/>
    </vehicle>
    <vehicle id="125" depart="237.50">
        <route edges="gneE6 2/1to1/1 1/1to8/1 8/1to7/1 7/1to8/1"/>
    </vehicle>
    <vehicle id="126" depart="239.40">
        <route edges="gneE3 7/1to6/1 6/1to5/1"/>
    </vehicle>
    <vehicle id="127" depart="241.30">
        <route edges="gneE7 8/1to7/1 7/1to6/1 6/1to5/1 5/1to6/1"/>
    </vehicle>
    <vehicle id="128" depart="243.20">
        <route edges="gneE2 3/1to4/1 4/1to5/1 5/1to6/1 6/1to7/1 7/1to8/1"/>
    </vehicle>
    <vehicle id="129" depart="245.10">
        <route edges="gneE5 4/1to5/1 5/1to6/1 6/1to7/1"/>
    </vehicle>
    <vehicle id="130" depart="247.00">
        <route edges="gneE1 1/1to8/1 8/1to7/1 7/1to6/1"/>
    </vehicle>
    <vehicle id="131" depart="248.90">
        <route edges="gneE2 3/1to2/1 2/1to1/1 1/1to8/1 8/1to1/1"/>
    </vehicle>
    <vehicle id="132" depart="250.80">
        <route edges="gneE5 4/1to5/1 5/1to6/1 6/1to7/1 7/1to6/1"/>
    </vehicle>
    <vehicle id="133" depart="252.70">
        <route edges="gneE3 7/1to8/1 8/1to1/1"/>
    </vehicle>
    <vehicle id="134" depart="254.60">
        <route edges="gneE1 1/1to2/1 2/1to3/1 3/1to4/1 4/1to3/1"/>
    </vehicle>
    <vehicle id="135" depart="256.50">
        <route edges="gneE7 8/1to7/1 7/1to6/1 6/1to5/1 5/1to6/1"/>
    </vehicle>
    <vehicle id="136" depart="258.40">
        <route edges="gneE1 1/1to2/1 2/1to3/1 3/1to4/1"/>
    </vehicle>
    <vehicle id="137" depart="260.30">
        <route edges="gneE0 5/1to6/1 6/1to7/1 7/1to8/1 8/1to7/1"/>
    </vehicle>
    <vehicle id="138" depart="262.20">
        <route edges="gneE5 4/1to5/1 5/1to6/1"/>
    </vehicle>
    <vehicle id="139" depart="264.10">
        <route edges="gneE4 6/1to7/1 7/1to8/1 8/1to1/1 1/1to2/1"/>
    </vehicle>
    <vehicle id="140" depart="266.00">
        <route edges="gneE0 5/1to4/1 4/1to3/1 3/1to2/1 2/1to1/1 1/1to8/1"/>
    </vehicle>
    <vehicle id="141" depart="267.90">
        <route edges="gneE7 8/1to1/1 1/1to2/1 2/1to3/1 3/1to4/1"/>
    </vehicle>
    <vehicle id="142" depart="269.80">
        <route edges="gneE6 2/1to1/1 1/1to8/1 8/1to7/1"/>
    </vehicle>
    <vehicle id="143" depart="271.70">
        <route edges="gneE7 8/1to1/1 1/1to2/1 2/1to3/1 3/1to4/1"/>
    </vehicle>
    <vehicle id="144" depart="273.60">
        <route edges="gneE3 7/1to8/1 8/1to1/1"/>
    </vehicle>
    <vehicle id="145" depart="275.50">
        <route edges="gneE6 2/1to1/1 1/1to8/1 8/1to7/1"/>
    </vehicle>
    <vehicle id="146" depart="277.40">
        <route edges="gneE0 5/1to4/1 4/1to3/1"/>
    </vehicle>
    <vehicle id="147" depart="279.30">
        <route edges="gneE7 8/1to1/1 1/1to2/1 2/1to3/1 3/1to2/1"/>
    </vehicle>
    <vehicle id="148" depart="281.20">
        <route edges="gneE6 2/1to3/1 3/1to4/1 4/1to5/1 5/1to6/1 6/1to7/1"/>
    </vehicle>
    <vehicle id="149" depart="283.10">
        <route edges="5/1to4/1 4/1to3/1 3/1to2/1 2/1to1/1 1/1to8/1 8/1to1/1"/>
    </vehicle>
    <vehicle id="150" depart="285.00">
        <route edges="gneE1 1/1to8/1 8/1to7/1 7/1to6/1"/>
    </vehicle>
    <vehicle id="151" depart="286.90">
        <route edges="gneE1 1/1to8/1 8/1to7/1 7/1to6/1 6/1to5/1"/>
    </vehicle>
    <vehicle id="152" depart="288.80">
        <route edges="gneE6 2/1to1/1 1/1to8/1 8/1to7/1 7/1to6/1"/>
    </vehicle>
    <vehicle id="153" depart="290.70">
        <route edges="gneE5 4/1to3/1 3/1to2/1 2/1to1/1"/>
    </vehicle>
    <vehicle id="154" depart="292.60">
        <route edges="gneE7 8/1to1/1 1/1to2/1 2/1to3/1 3/1to4/1"/>
    </vehicle>
    <vehicle id="155" depart="294.50">
        <route edges="gneE4 6/1to5/1 5/1to4/1 4/1to3/1"/>
    </vehicle>
    <vehicle id="156" depart="296.40">
        <route edges="gneE5 4/1to3/1 3/1to2/1 2/1to1/1 1/1to2/1"/>
    </vehicle>
    <vehicle id="157" depart="298.30">
        <route edges="gneE7 8/1to1/1 1/1to2/1 2/1to3/1 3/1to4/1"/>
    </vehicle>
    <vehicle id="158" depart="300.20">
        <route edges="gneE0 5/1to4/1 4/1to3/1 3/1to2/1 2/1to1/1 1/1to2/1"/>
    </vehicle>
    <vehicle id="159" depart="302.10">
        <route edges="gneE7 8/1to7/1 7/1to6/1 6/1to5/1"/>
    </vehicle>
    <vehicle id="160" depart="304.00">
        <route edges="gneE3 7/1to6/1 6/1to5/1 5/1to4/1"/>
    </vehicle>
    <vehicle id="161" depart="305.90">
        <route edges="gneE3 7/1to8/1 8/1to1/1"/>
    </vehicle>
    <vehicle id="162" depart="307.80">
        <route edges="gneE4 6/1to7/1 7/1to8/1 8/1to1/1"/>
    </vehicle>
    <vehicle id="163" depart="309.70">
        <route edges="gneE5 4/1to5/1 5/1to6/1 6/1to7/1"/>
    </vehicle>
    <vehicle id="164" depart="311.60">
        <route edges="gneE0 5/1to6/1 6/1to7/1 7/1to8/1"/>
    </vehicle>
    <vehicle id="165" depart="313.50">
        <route edges="gneE0 5/1to6/1 6/1to7/1 7/1to8/1 8/1to1/1"/>
    </vehicle>
    <vehicle id="166" depart="315.40">
        <route edges="gneE1 1/1to8/1 8/1to7/1 7/1to6/1"/>
    </vehicle>
    <vehicle id="167" depart="317.30">
        <route edges="gneE1 1/1to2/1 2/1to3/1 3/1to4/1 4/1to5/1"/>
    </vehicle>
    <vehicle id="168" depart="319.20">
        <route edges="gneE1 1/1to2/1 2/1to3/1 3/1to4/1 4/1to5/1 5/1to4/1"/>
    </vehicle>
    <vehicle id="169" depart="321.10">
        <route edges="gneE5 4/1to3/1 3/1to2/1 2/1to1/1"/>
    </vehicle>
    <vehicle id="170" depart="323.00">
        <route edges="gneE1 1/1to2/1 2/1to3/1"/>
    </vehicle>
    <vehicle id="171" depart="324.90">
        <route edges="gneE4 6/1to7/1 7/1to8/1 8/1to1/1"/>
    </vehicle>
    <vehicle id="172" depart="326.80">
        <route edges="gneE7 8/1to7/1 7/1to6/1"/>
    </vehicle>
    <vehicle id="173" depart="328.70">
        <route edges="gneE7 8/1to7/1 7/1to6/1"/>
    </vehicle>
    <vehicle id="174" depart="330.60">
        <route edges="gneE3 7/1to6/1 6/1to5/1 5/1to4/1 4/1to3/1"/>
    </vehicle>
    <vehicle id="175" depart="332.50">
        <route edges="gneE4 6/1to5/1 5/1to4/1 4/1to3/1"/>
    </vehicle>
    <vehicle id="176" depart="334.40">
        <route edges="gneE5 4/1to3/1 3/1to2/1 2/1to1/1 1/1to8/1"/>
    </vehicle>
    <vehicle id="177" depart="336.30">
        <route edges="gneE2 3/1to4/1 4/1to5/1 5/1to6/1 6/1to7/1"/>
    </vehicle>
    <vehicle id="178" depart="338.20">
        <route edges="gneE4 6/1to7/1 7/1to8/1 8/1to1/1 1/1to2/1 2/1to1/1"/>
    </vehicle>
    <vehicle id="179" depart="340.10">
        <route edges="gneE3 7/1to8/1 8/1to1/1 1/1to2/1 2/1to3/1 3/1to2/1"/>
    </vehicle>
    <vehicle id="180" depart="342.00">
        <route edges="gneE5 4/1to5/1 5/1to6/1 6/1to7/1 7/1to8/1"/>
    </vehicle>
    <vehicle id="181" depart="343.90">
        <route edges="gneE0 5/1to4/1 4/1to3/1 3/1to2/1 2/1to1/1 1/1to8/1"/>
    </vehicle>
    <vehicle id="182" depart="345.80">
        <route edges="gneE0 5/1to4/1 4/1to3/1 3/1to2/1 2/1to1/1"/>
    </vehicle>
    <vehicle id="183" depart="347.70">
        <route edges="3/1to4/1 4/1to3/1 3/1to2/1 2/1to1/1 1/1to8/1 8/1to7/1"/>
    </vehicle>
    <vehicle id="184" depart="349.60">
        <route edges="gneE4 6/1to7/1 7/1to8/1 8/1to1/1 1/1to8/1"/>
    </vehicle>
    <vehicle id="185" depart="351.50">
        <route edges="gneE7 8/1to7/1 7/1to6/1 6/1to5/1"/>
    </vehicle>
    <vehicle id="186" depart="353.40">
        <route edges="gneE5 4/1to3/1 3/1to2/1 2/1to1/1 1/1to8/1 8/1to7/1"/>
    </vehicle>
    <vehicle id="187" depart="355.30">
        <route edges="gneE1 1/1to8/1 8/1to7/1 7/1to6/1 6/1to7/1"/>
    </vehicle>
    <vehicle id="188" depart="357.20">
        <route edges="gneE3 7/1to6/1 6/1to5/1 5/1to4/1 4/1to3/1"/>
    </vehicle>
    <vehicle id="189" depart="359.10">
        <route edges="gneE7 8/1to7/1 7/1to6/1 6/1to5/1"/>
    </vehicle>
    <vehicle id="190" depart="361.00">
        <route edges="gneE1 1/1to2/1 2/1to3/1 3/1to4/1 4/1to5/1 5/1to4/1"/>
    </vehicle>
    <vehicle id="191" depart="362.90">
        <route edges="gneE2 3/1to4/1 4/1to5/1 5/1to6/1 6/1to5/1"/>
    </vehicle>
    <vehicle id="192" depart="364.80">
        <route edges="gneE7 8/1to1/1 1/1to2/1"/>
    </vehicle>
    <vehicle id="193" depart="366.70">
        <route edges="gneE6 2/1to3/1 3/1to4/1 4/1to5/1 5/1to6/1 6/1to7/1"/>
    </vehicle>
    <vehicle id="194" depart="368.60">
        <route edges="gneE7 8/1to1/1 1/1to2/1 2/1to3/1"/>
    </vehicle>
    <vehicle id="195" depart="370.50">
        <route edges="gneE7 8/1to1/1 1/1to2/1 2/1to3/1 3/1to4/1 4/1to3/1"/>
    </vehicle>
    <vehicle id="196" depart="372.40">
        <route edges="gneE7 8/1to1/1 1/1to2/1 2/1to3/1 3/1to4/1 4/1to5/1"/>
    </vehicle>
    <vehicle id="197" depart="374.30">
        <route edges="gneE1 1/1to2/1 2/1to3/1"/>
    </vehicle>
    <vehicle id="198" depart="376.20">
        <route edges="gneE6 2/1to3/1 3/1to4/1 4/1to5/1 5/1to4/1"/>
    </vehicle>
    <vehicle id="199" depart="378.10">
        <route edges="gneE2 3/1to4/1 4/1to5/1 5/1to6/1"/>
    </vehicle>
    <vehicle id="200" depart="380.00">
        <route edges="gneE7 8/1to1/1 1/1to2/1 2/1to3/1 3/1to2/1"/>
    </vehicle>
    <vehicle id="201" depart="381.90">
        <route edges="gneE3 7/1to8/1 8/1to1/1 1/1to2/1 2/1to3/1"/>
    </vehicle>
    <vehicle id="202" depart="383.80">
        <route edges="gneE7 8/1to7/1 7/1to6/1 6/1to5/1"/>
    </vehicle>
    <vehicle id="203" depart="385.70">
        <route edges="gneE2 3/1to4/1 4/1to5/1 5/1to6/1 6/1to7/1 7/1to8/1"/>
    </vehicle>
    <vehicle id="204" depart="387.60">
        <route edges="gneE3 7/1to6/1 6/1to5/1 5/1to4/1"/>
    </vehicle>
    <vehicle id="205" depart="389.50">
        <route edges="gneE7 8/1to1/1 1/1to2/1 2/1to3/1"/>
    </vehicle>
    <vehicle id="206" depart="391.40">
        <route edges="gneE3 7/1to8/1 8/1to1/1 1/1to2/1 2/1to3/1"/>
    </vehicle>
    <vehicle id="207" depart="393.30">
        <route edges="gneE2 3/1to4/1 4/1to5/1"/>
    </vehicle>
    <vehicle id="208" depart="395.20">
        <route edges="gneE4 6/1to7/1 7/1to8/1 8/1to1/1 1/1to2/1 2/1to1/1"/>
    </vehicle>
    <vehicle id="209" depart="397.10">
        <route edges="gneE7 8/1to7/1 7/1to6/1"/>
    </vehicle>
    <vehicle id="210" depart="399.00">
        <route edges="gneE2 3/1to4/1 4/1to5/1"/>
    </vehicle>
    <vehicle id="211" depart="400.90">
        <route edges="gneE1 1/1to2/1 2/1to3/1 3/1to4/1 4/1to5/1 5/1to6/1"/>
    </vehicle>
    <vehicle id="212" depart="402.80">
        <route edges="gneE2 3/1to2/1 2/1to1/1"/>
    </vehicle>
    <vehicle id="213" depart="404.70">
        <route edges="gneE1 1/1to2/1 2/1to3/1 3/1to4/1"/>
    </vehicle>
    <vehicle id="214" depart="406.60">
        <route edges="gneE7 8/1to1/1 1/1to2/1 2/1to3/1 3/1to4/1"/>
    </vehicle>
    <vehicle id="215" depart="408.50">
        <route edges="gneE1 1/1to8/1 8/1to7/1 7/1to6/1 6/1to7/1"/>
    </vehicle>
    <vehicle id="216" depart="410.40">
        <route edges="gneE5 4/1to3/1 3/1to2/1 2/1to1/1 1/1to8/1 8/1to7/1"/>
    </vehicle>
    <vehicle id="217" depart="412.30">
        <route edges="gneE6 2/1to1/1 1/1to8/1 8/1to7/1 7/1to8/1"/>
    </vehicle>
    <vehicle id="218" depart="414.20">
        <route edges="gneE1 1/1to8/1 8/1to7/1"/>
    </vehicle>
    <vehicle id="219" depart="416.10">
        <route edges="gneE3 7/1to8/1 8/1to1/1 1/1to2/1 2/1to3/1"/>
    </vehicle>
    <vehicle id="220" depart="418.00">
        <route edges="gneE4 6/1to7/1 7/1to8/1"/>
    </vehicle>
    <vehicle id="221" depart="419.90">
        <route edges="gneE1 1/1to8/1 8/1to7/1 7/1to6/1 6/1to5/1"/>
    </vehicle>
    <vehicle id="222" depart="421.80">
        <route edges="gneE7 8/1to7/1 7/1to6/1 6/1to5/1 5/1to4/1"/>
    </vehicle>
    <vehicle id="223" depart="423.70">
        <route edges="gneE6 2/1to3/1 3/1to4/1 4/1to5/1 5/1to4/1"/>
    </vehicle>
    <vehicle id="224" depart="425.60">
        <route edges="gneE1 1/1to8/1 8/1to7/1 7/1to6/1 6/1to5/1"/>
    </vehicle>
    <vehicle id="225" depart="427.50">
        <route edges="5/1to6/1 6/1to7/1 7/1to8/1 8/1to1/1 1/1to2/1 2/1to1/1"/>
    </vehicle>
    <vehicle id="226" depart="429.40">
        <route edges="gneE0 5/1to4/1 4/1to3/1 3/1to2/1 2/1to1/1 1/1to8/1"/>
    </vehicle>
    <vehicle id="227" depart="431.30">
        <route edges="gneE5 4/1to5/1 5/1to6/1"/>
    </vehicle>
    <vehicle id="228" depart="433.20">
        <route edges="gneE0 5/1to4/1 4/1to3/1 3/1to2/1 2/1to1/1 1/1to2/1"/>
    </vehicle>
    <vehicle id="229" depart="435.10">
        <route edges="gneE6 2/1to3/1 3/1to4/1"/>
    </vehicle>
    <vehicle id="230" depart="437.00">
        <route edges="gneE2 3/1to2/1 2/1to1/1 1/1to8/1"/>
    </vehicle>
    <vehicle id="231" depart="438.90">
        <route edges="gneE2 3/1to4/1 4/1to5/1"/>
    </vehicle>
    <vehicle id="232" depart="440.80">
        <route edges="gneE6 2/1to3/1 3/1to4/1 4/1to5/1 5/1to6/1 6/1to5/1"/>
    </vehicle>
    <vehicle id="233" depart="442.70">
        <route edges="gneE1 1/1to8/1 8/1to7/1 7/1to6/1"/>
    </vehicle>
    <vehicle id="234" depart="444.60">
        <route edges="gneE1 1/1to8/1 8/1to7/1 7/1to6/1"/>
    </vehicle>
    <vehicle id="235" depart="446.50">
        <route edges="gneE7 8/1to7/1 7/1to6/1 6/1to5/1 5/1to4/1"/>
    </vehicle>
    <vehicle id="236" depart="448.40">
        <route edges="gneE7 8/1to1/1 1/1to2/1 2/1to3/1 3/1to4/1 4/1to5/1"/>
    </vehicle>
    <vehicle id="237" depart="450.30">
        <route edges="gneE2 3/1to2/1 2/1to1/1 1/1to8/1"/>
    </vehicle>
    <vehicle id="238" depart="452.20">
        <route edges="gneE5 4/1to3/1 3/1to2/1 2/1to1/1"/>
    </vehicle>
    <vehicle id="239" depart="454.10">
        <route edges="gneE3 7/1to8/1 8/1to1/1"/>
    </vehicle>
    <vehicle id="240" depart="456.00">
        <route edges="gneE7 8/1to7/1 7/1to6/1 6/1to5/1"/>
    </vehicle>
    <vehicle id="241" depart="457.90">
        <route edges="gneE1 1/1to2/1 2/1to3/1 3/1to4/1 4/1to3/1"/>
    </vehicle>
    <vehicle id="242" depart="459.80">
        <route edges="gneE0 5/1to4/1 4/1to3/1 3/1to2/1 2/1to1/1 1/1to8/1"/>
    </vehicle>
    <vehicle id="243" depart="461.70">
        <route edges="gneE2 3/1to4/1 4/1to5/1 5/1to6/1 6/1to7/1"/>
    </vehicle>
    <vehicle id="244" depart="463.60">
        <route edges="gneE7 8/1to1/1 1/1to2/1"/>
    </vehicle>
    <vehicle id="245" depart="465.50">
        <route edges="gneE4 6/1to7/1 7/1to8/1 8/1to1/1"/>
    </vehicle>
    <vehicle id="246" depart="467.40">
        <route edges="gneE3 7/1to8/1 8/1to1/1"/>
    </vehicle>
    <vehicle id="247" depart="469.30">
        <route edges="gneE2 3/1to4/1 4/1to5/1 5/1to6/1 6/1to7/1"/>
    </vehicle>
    <vehicle id="248" depart="471.20">
        <route edges="gneE7 8/1to1/1 1/1to2/1 2/1to3/1 3/1to4/1"/>
    </vehicle>
    <vehicle id="249" depart="473.10">
        <route edges="gneE6 2/1to3/1 3/1to4/1 4/1to5/1 5/1to6/1"/>
    </vehicle>