<?xml version="1.0" encoding="UTF-8"?>

<!-- generated on Sun May  6 21:15:33 2018 by SUMO duarouter Version 0.30.0
<?xml version="1.0" encoding="UTF-8"?>

<configuration xmlns:xsi="http://www.w3.org/2001/XMLSchema-instance" xsi:noNamespaceSchemaLocation="http://sumo.dlr.de/xsd/duarouterConfiguration.xsd">

    <input>
        <net-file value="spider/spider.net.xml"/>
        <route-files value="trips.trips.xml"/>
    </input>

    <output>
        <output-file value="spider/route/spider-1.6-1.rou.xml"/>
    </output>

    <processing>
        <ignore-errors value="true"/>
    </processing>

    <time>
        <begin value="0.0"/>
        <end value="1000.0"/>
    </time>

    <report>
        <no-warnings value="true"/>
        <no-step-log value="true"/>
    </report>

</configuration>
-->

<routes xmlns:xsi="http://www.w3.org/2001/XMLSchema-instance" xsi:noNamespaceSchemaLocation="http://sumo.dlr.de/xsd/routes_file.xsd">
    <vehicle id="0" depart="0.00">
        <route edges="gneE5 4/1to5/1 5/1to6/1 6/1to7/1 7/1to8/1"/>
    </vehicle>
    <vehicle id="1" depart="1.60">
        <route edges="gneE3 7/1to6/1 6/1to5/1"/>
    </vehicle>
    <vehicle id="2" depart="3.20">
        <route edges="gneE6 2/1to3/1 3/1to2/1"/>
    </vehicle>
    <vehicle id="3" depart="4.80">
        <route edges="gneE3 7/1to8/1 8/1to1/1 1/1to8/1"/>
    </vehicle>
    <vehicle id="4" depart="6.40">
        <route edges="7/1to8/1 8/1to1/1 1/1to2/1 2/1to3/1 3/1to4/1"/>
    </vehicle>
    <vehicle id="5" depart="8.00">
        <route edges="gneE3 7/1to6/1"/>
    </vehicle>
    <vehicle id="6" depart="9.60">
        <route edges="gneE7 8/1to1/1"/>
    </vehicle>
    <vehicle id="7" depart="11.20">
        <route edges="gneE2 3/1to4/1 4/1to3/1"/>
    </vehicle>
    <vehicle id="8" depart="12.80">
        <route edges="gneE7 8/1to1/1 1/1to2/1 2/1to3/1 3/1to4/1 4/1to5/1"/>
    </vehicle>
    <vehicle id="9" depart="14.40">
        <route edges="5/1to4/1 4/1to3/1"/>
    </vehicle>
    <vehicle id="10" depart="16.00">
        <route edges="gneE3 7/1to8/1 8/1to1/1 1/1to2/1 2/1to3/1"/>
    </vehicle>
    <vehicle id="11" depart="17.60">
        <route edges="gneE2 3/1to4/1 4/1to5/1 5/1to6/1 6/1to7/1 7/1to8/1"/>
    </vehicle>
    <vehicle id="12" depart="19.20">
        <route edges="gneE4 6/1to7/1 7/1to8/1"/>
    </vehicle>
    <vehicle id="13" depart="20.80">
        <route edges="gneE5 4/1to3/1 3/1to4/1"/>
    </vehicle>
    <vehicle id="14" depart="22.40">
        <route edges="4/1to5/1 5/1to4/1"/>
    </vehicle>
    <vehicle id="15" depart="24.00">
        <route edges="gneE2 3/1to4/1 4/1to5/1 5/1to6/1 6/1to7/1"/>
    </vehicle>
    <vehicle id="16" depart="25.60">
        <route edges="gneE0 5/1to6/1 6/1to5/1"/>
    </vehicle>
    <vehicle id="17" depart="27.20">
        <route edges="gneE4 6/1to5/1 5/1to4/1 4/1to3/1"/>
    </vehicle>
    <vehicle id="18" depart="28.80">
        <route edges="gneE6 2/1to1/1 1/1to2/1"/>
    </vehicle>
    <vehicle id="19" depart="30.40">
        <route edges="7/1to6/1 6/1to7/1 7/1to8/1 8/1to1/1 1/1to2/1 2/1to3/1"/>
    </vehicle>
    <vehicle id="20" depart="32.00">
        <route edges="gneE6 2/1to3/1 3/1to4/1 4/1to5/1 5/1to6/1 6/1to5/1"/>
    </vehicle>
    <vehicle id="21" depart="33.60">
        <route edges="4/1to5/1 5/1to6/1 6/1to7/1 7/1to8/1"/>
    </vehicle>
    <vehicle id="22" depart="35.20">
        <route edges="gneE5 4/1to5/1 5/1to6/1 6/1to7/1 7/1to8/1"/>
    </vehicle>
    <vehicle id="23" depart="36.80">
        <route edges="gneE0 5/1to6/1 6/1to7/1 7/1to8/1 8/1to1/1"/>
    </vehicle>
    <vehicle id="24" depart="38.40">
        <route edges="8/1to7/1 7/1to6/1 6/1to7/1"/>
    </vehicle>
    <vehicle id="25" depart="40.00">
        <route edges="gneE1 1/1to8/1 8/1to7/1 7/1to6/1 6/1to5/1"/>
    </vehicle>
    <vehicle id="26" depart="41.60">
        <route edges="gneE0 5/1to6/1 6/1to7/1 7/1to6/1"/>
    </vehicle>
    <vehicle id="27" depart="43.20">
        <route edges="gneE6 2/1to1/1"/>
    </vehicle>
    <vehicle id="28" depart="44.80">
        <route edges="7/1to8/1 8/1to1/1 1/1to2/1"/>
    </vehicle>
    <vehicle id="29" depart="46.40">
        <route edges="2/1to3/1 3/1to2/1 2/1to1/1 1/1to8/1"/>
    </vehicle>
    <vehicle id="30" depart="48.00">
        <route edges="gneE7 8/1to7/1 7/1to6/1 6/1to5/1"/>
    </vehicle>
    <vehicle id="31" depart="49.60">
        <route edges="gneE3 7/1to8/1 8/1to1/1 1/1to2/1 2/1to3/1 3/1to4/1"/>
    </vehicle>
    <vehicle id="32" depart="51.20">
        <route edges="gneE4 6/1to5/1 5/1to4/1 4/1to5/1"/>
    </vehicle>
    <vehicle id="33" depart="52.80">
        <route edges="gneE1 1/1to2/1 2/1to3/1 3/1to4/1 4/1to5/1 5/1to6/1"/>
    </vehicle>
    <vehicle id="34" depart="54.40">
        <route edges="gneE5 4/1to5/1 5/1to6/1 6/1to7/1"/>
    </vehicle>
    <vehicle id="35" depart="56.00">
        <route edges="gneE2 3/1to4/1 4/1to5/1 5/1to6/1 6/1to7/1 7/1to6/1"/>
    </vehicle>
    <vehicle id="36" depart="57.60">
        <route edges="gneE1 1/1to2/1 2/1to3/1 3/1to4/1"/>
    </vehicle>
    <vehicle id="37" depart="59.20">
        <route edges="gneE1 1/1to8/1"/>
    </vehicle>
    <vehicle id="38" depart="60.80">
        <route edges="gneE0 5/1to6/1"/>
    </vehicle>
    <vehicle id="39" depart="62.40">
        <route edges="gneE0 5/1to6/1 6/1to7/1 7/1to6/1"/>
    </vehicle>
    <vehicle id="40" depart="64.00">
        <route edges="gneE7 8/1to1/1"/>
    </vehicle>
    <vehicle id="41" depart="65.60">
        <route edges="gneE0 5/1to6/1 6/1to7/1"/>
    </vehicle>
    <vehicle id="42" depart="67.20">
        <route edges="5/1to6/1 6/1to7/1 7/1to8/1 8/1to1/1 1/1to2/1 2/1to3/1"/>
    </vehicle>
    <vehicle id="43" depart="68.80">
        <route edges="gneE7 8/1to7/1 7/1to6/1 6/1to5/1"/>
    </vehicle>
    <vehicle id="44" depart="70.40">
        <route edges="gneE2 3/1to2/1 2/1to1/1 1/1to8/1 8/1to1/1"/>
    </vehicle>
    <vehicle id="45" depart="72.00">
        <route edges="gneE5 4/1to3/1 3/1to2/1 2/1to1/1 1/1to8/1 8/1to1/1"/>
    </vehicle>
    <vehicle id="46" depart="73.60">
        <route edges="gneE4 6/1to7/1 7/1to8/1 8/1to1/1 1/1to2/1 2/1to3/1"/>
    </vehicle>
    <vehicle id="47" depart="75.20">
        <route edges="gneE1 1/1to8/1 8/1to7/1"/>
    </vehicle>
    <vehicle id="48" depart="76.80">
        <route edges="gneE1 1/1to8/1 8/1to7/1 7/1to6/1 6/1to5/1"/>
    </vehicle>
    <vehicle id="49" depart="78.40">
        <route edges="gneE3 7/1to8/1 8/1to1/1 1/1to8/1"/>
    </vehicle>
    <vehicle id="50" depart="80.00">
        <route edges="gneE7 8/1to1/1 1/1to2/1 2/1to3/1 3/1to4/1 4/1to3/1"/>
    </vehicle>
    <vehicle id="51" depart="81.60">
        <route edges="gneE1 1/1to8/1 8/1to7/1"/>
    </vehicle>
    <vehicle id="52" depart="83.20">
        <route edges="gneE2 3/1to4/1 4/1to5/1 5/1to6/1"/>
    </vehicle>
    <vehicle id="53" depart="84.80">
        <route edges="3/1to2/1 2/1to3/1 3/1to4/1 4/1to3/1"/>
    </vehicle>
    <vehicle id="54" depart="86.40">
        <route edges="gneE3 7/1to8/1 8/1to1/1 1/1to2/1 2/1to3/1 3/1to2/1"/>
    </vehicle>
    <vehicle id="55" depart="88.00">
        <route edges="gneE4 6/1to7/1 7/1to6/1"/>
    </vehicle>
    <vehicle id="56" depart="89.60">
        <route edges="gneE6 2/1to1/1 1/1to2/1"/>
    </vehicle>
    <vehicle id="57" depart="91.20">
        <route edges="1/1to8/1 8/1to1/1 1/1to2/1 2/1to3/1"/>
    </vehicle>
    <vehicle id="58" depart="92.80">
        <route edges="gneE4 6/1to7/1 7/1to8/1"/>
    </vehicle>
    <vehicle id="59" depart="94.40">
        <route edges="gneE1 1/1to2/1 2/1to3/1 3/1to2/1"/>
    </vehicle>
    <vehicle id="60" depart="96.00">
        <route edges="7/1to8/1 8/1to1/1 1/1to2/1 2/1to1/1"/>
    </vehicle>
    <vehicle id="61" depart="97.60">
        <route edges="gneE2 3/1to4/1 4/1to5/1 5/1to6/1 6/1to7/1 7/1to8/1"/>
    </vehicle>
    <vehicle id="62" depart="99.20">
        <route edges="gneE1 1/1to8/1"/>
    </vehicle>
    <vehicle id="63" depart="100.80">
        <route edges="gneE6 2/1to1/1 1/1to2/1"/>
    </vehicle>
    <vehicle id="64" depart="102.40">
        <route edges="gneE4 6/1to5/1 5/1to4/1 4/1to3/1"/>
    </vehicle>
    <vehicle id="65" depart="104.00">
        <route edges="5/1to6/1 6/1to5/1"/>
    </vehicle>
    <vehicle id="66" depart="105.60">
        <route edges="gneE7 8/1to7/1 7/1to6/1 6/1to5/1"/>
    </vehicle>
    <vehicle id="67" depart="107.20">
        <route edges="gneE4 6/1to5/1 5/1to4/1 4/1to3/1 3/1to2/1"/>
    </vehicle>
    <vehicle id="68" depart="108.80">
        <route edges="1/1to2/1 2/1to3/1 3/1to4/1 4/1to5/1 5/1to6/1"/>
    </vehicle>
    <vehicle id="69" depart="110.40">
        <route edges="gneE0 5/1to4/1 4/1to3/1 3/1to2/1 2/1to1/1 1/1to2/1"/>
    </vehicle>
    <vehicle id="70" depart="112.00">
        <route edges="2/1to1/1 1/1to2/1"/>
    </vehicle>
    <vehicle id="71" depart="113.60">
        <route edges="gneE1 1/1to8/1 8/1to1/1"/>
    </vehicle>
    <vehicle id="72" depart="115.20">
        <route edges="gneE3 7/1to8/1"/>
    </vehicle>
    <vehicle id="73" depart="116.80">
        <route edges="gneE6 2/1to3/1 3/1to4/1 4/1to5/1 5/1to6/1"/>
    </vehicle>
    <vehicle id="74" depart="118.40">
        <route edges="gneE4 6/1to5/1"/>
    </vehicle>
    <vehicle id="75" depart="120.00">
        <route edges="gneE0 5/1to6/1"/>
    </vehicle>
    <vehicle id="76" depart="121.60">
        <route edges="gneE5 4/1to3/1 3/1to2/1 2/1to1/1 1/1to2/1"/>
    </vehicle>
    <vehicle id="77" depart="123.20">
        <route edges="gneE7 8/1to1/1"/>
    </vehicle>
    <vehicle id="78" depart="124.80">
        <route edges="gneE1 1/1to2/1 2/1to3/1 3/1to4/1 4/1to5/1"/>
    </vehicle>
    <vehicle id="79" depart="126.40">
        <route edges="gneE0 5/1to4/1 4/1to3/1 3/1to4/1"/>
    </vehicle>
    <vehicle id="80" depart="128.00">
        <route edges="gneE2 3/1to4/1 4/1to5/1 5/1to6/1 6/1to7/1 7/1to6/1"/>
    </vehicle>
    <vehicle id="81" depart="129.60">
        <route edges="gneE7 8/1to7/1 7/1to8/1"/>
    </vehicle>
    <vehicle id="82" depart="131.20">
        <route edges="gneE5 4/1to3/1 3/1to2/1"/>
    </vehicle>
    <vehicle id="83" depart="132.80">
        <route edges="gneE6 2/1to1/1 1/1to8/1 8/1to7/1 7/1to8/1"/>
    </vehicle>
    <vehicle id="84" depart="134.40">
        <route edges="gneE0 5/1to6/1 6/1to7/1 7/1to8/1"/>
    </vehicle>
    <vehicle id="85" depart="136.00">
        <route edges="5/1to6/1 6/1to7/1 7/1to8/1 8/1to1/1 1/1to2/1 2/1to1/1"/>
    </vehicle>
    <vehicle id="86" depart="137.60">
        <route edges="gneE3 7/1to8/1 8/1to1/1 1/1to2/1 2/1to3/1 3/1to2/1"/>
    </vehicle>
    <vehicle id="87" depart="139.20">
        <route edges="gneE1 1/1to2/1 2/1to3/1 3/1to4/1 4/1to5/1 5/1to6/1"/>
    </vehicle>
    <vehicle id="88" depart="140.80">
        <route edges="gneE1 1/1to2/1"/>
    </vehicle>
    <vehicle id="89" depart="142.40">
        <route edges="gneE1 1/1to8/1"/>
    </vehicle>
    <vehicle id="90" depart="144.00">
        <route edges="gneE1 1/1to8/1 8/1to7/1 7/1to8/1"/>
    </vehicle>
    <vehicle id="91" depart="145.60">
        <route edges="gneE5 4/1to3/1 3/1to2/1 2/1to1/1 1/1to8/1 8/1to7/1"/>
    </vehicle>
    <vehicle id="92" depart="147.20">
        <route edges="gneE1 1/1to2/1 2/1to3/1 3/1to4/1 4/1to5/1 5/1to4/1"/>
    </vehicle>
    <vehicle id="93" depart="148.80">
        <route edges="gneE6 2/1to3/1"/>
    </vehicle>
    <vehicle id="94" depart="150.40">
        <route edges="4/1to5/1"/>
    </vehicle>
    <vehicle id="95" depart="152.00">
        <route edges="gneE1 1/1to2/1 2/1to3/1 3/1to4/1"/>
    </vehicle>
    <vehicle id="96" depart="153.60">
        <route edges="gneE7 8/1to7/1"/>
    </vehicle>
    <vehicle id="97" depart="155.20">
        <route edges="gneE7 8/1to7/1 7/1to6/1 6/1to5/1"/>
    </vehicle>
    <vehicle id="98" depart="156.80">
        <route edges="gneE5 4/1to5/1 5/1to6/1"/>
    </vehicle>
    <vehicle id="99" depart="158.40">
        <route edges="gneE6 2/1to1/1 1/1to8/1 8/1to1/1"/>
    </vehicle>
    <vehicle id="100" depart="160.00">
        <route edges="8/1to7/1 7/1to8/1 8/1to1/1 1/1to2/1"/>
    </vehicle>
    <vehicle id="101" depart="161.60">
        <route edges="gneE7 8/1to7/1 7/1to6/1 6/1to5/1 5/1to6/1"/>
    </vehicle>
    <vehicle id="102" depart="163.20">
        <route edges="3/1to2/1"/>
    </vehicle>
    <vehicle id="103" depart="164.80">
        <route edges="gneE7 8/1to1/1 1/1to2/1 2/1to3/1 3/1to4/1"/>
    </vehicle>
    <vehicle id="104" depart="166.40">
        <route edges="gneE2 3/1to4/1 4/1to5/1 5/1to4/1"/>
    </vehicle>
    <vehicle id="105" depart="168.00">
        <route edges="gneE4 6/1to5/1"/>
    </vehicle>
    <vehicle id="106" depart="169.60">
        <route edges="gneE1 1/1to8/1 8/1to7/1 7/1to6/1 6/1to5/1"/>
    </vehicle>
    <vehicle id="107" depart="171.20">
        <route edges="gneE3 7/1to8/1 8/1to1/1 1/1to2/1"/>
    </vehicle>
    <vehicle id="108" depart="172.80">
        <route edges="gneE4 6/1to5/1 5/1to4/1 4/1to3/1"/>
    </vehicle>
    <vehicle id="109" depart="174.40">
        <route edges="1/1to8/1 8/1to7/1 7/1to6/1 6/1to5/1"/>
    </vehicle>
    <vehicle id="110" depart="176.00">
        <route edges="gneE2 3/1to4/1 4/1to5/1 5/1to6/1 6/1to7/1"/>
    </vehicle>
    <vehicle id="111" depart="177.60">
        <route edges="gneE0 5/1to4/1 4/1to3/1 3/1to2/1"/>
    </vehicle>
    <vehicle id="112" depart="179.20">
        <route edges="2/1to3/1 3/1to4/1 4/1to5/1"/>
    </vehicle>
    <vehicle id="113" depart="180.80">
        <route edges="gneE1 1/1to8/1 8/1to7/1 7/1to6/1 6/1to7/1"/>
    </vehicle>
    <vehicle id="114" depart="182.40">
        <route edges="gneE0 5/1to6/1"/>
    </vehicle>
    <vehicle id="115" depart="184.00">
        <route edges="6/1to5/1 5/1to4/1 4/1to3/1 3/1to2/1 2/1to1/1 1/1to2/1"/>
    </vehicle>
    <vehicle id="116" depart="185.60">
        <route edges="gneE6 2/1to1/1 1/1to8/1 8/1to7/1"/>
    </vehicle>
    <vehicle id="117" depart="187.20">
        <route edges="8/1to7/1 7/1to6/1 6/1to5/1"/>
    </vehicle>
    <vehicle id="118" depart="188.80">
        <route edges="gneE5 4/1to5/1 5/1to6/1 6/1to7/1 7/1to6/1"/>
    </vehicle>
    <vehicle id="119" depart="190.40">
        <route edges="gneE7 8/1to7/1"/>
    </vehicle>
    <vehicle id="120" depart="192.00">
        <route edges="gneE3 7/1to6/1 6/1to5/1 5/1to6/1"/>
    </vehicle>
    <vehicle id="121" depart="193.60">
        <route edges="gneE0 5/1to4/1 4/1to3/1"/>
    </vehicle>
    <vehicle id="122" depart="195.20">
        <route edges="7/1to8/1 8/1to7/1 7/1to6/1 6/1to5/1 5/1to4/1"/>
    </vehicle>
    <vehicle id="123" depart="196.80">
        <route edges="3/1to4/1 4/1to3/1 3/1to2/1 2/1to1/1 1/1to2/1"/>
    </vehicle>
    <vehicle id="124" depart="198.40">
        <route edges="gneE2 3/1to2/1"/>
    </vehicle>
    <vehicle id="125" depart="200.00">
        <route edges="gneE4 6/1to5/1 5/1to4/1 4/1to5/1"/>
    </vehicle>
    <vehicle id="126" depart="201.60">
        <route edges="gneE5 4/1to3/1 3/1to2/1"/>
    </vehicle>
    <vehicle id="127" depart="203.20">
        <route edges="gneE1 1/1to2/1"/>
    </vehicle>
    <vehicle id="128" depart="204.80">
        <route edges="gneE2 3/1to2/1 2/1to1/1 1/1to8/1 8/1to7/1"/>
    </vehicle>
    <vehicle id="129" depart="206.40">
        <route edges="3/1to2/1 2/1to3/1 3/1to4/1 4/1to5/1 5/1to6/1 6/1to7/1"/>
    </vehicle>
    <vehicle id="130" depart="208.00">
        <route edges="gneE2 3/1to2/1 2/1to3/1"/>
    </vehicle>
    <vehicle id="131" depart="209.60">
        <route edges="gneE1 1/1to8/1 8/1to7/1 7/1to8/1"/>
    </vehicle>
    <vehicle id="132" depart="211.20">
        <route edges="gneE3 7/1to8/1 8/1to1/1 1/1to2/1"/>
    </vehicle>
    <vehicle id="133" depart="212.80">
        <route edges="gneE4 6/1to7/1 7/1to8/1 8/1to1/1 1/1to2/1"/>
    </vehicle>
    <vehicle id="134" depart="214.40">
        <route edges="gneE7 8/1to7/1 7/1to6/1"/>
    </vehicle>
    <vehicle id="135" depart="216.00">
        <route edges="7/1to8/1 8/1to7/1 7/1to6/1 6/1to5/1 5/1to4/1"/>
    </vehicle>
    <vehicle id="136" depart="217.60">
        <route edges="5/1to6/1 6/1to5/1 5/1to4/1 4/1to3/1 3/1to2/1"/>
    </vehicle>
    <vehicle id="137" depart="219.20">
        <route edges="gneE3 7/1to8/1"/>
    </vehicle>
    <vehicle id="138" depart="220.80">
        <route edges="gneE2 3/1to4/1 4/1to5/1 5/1to6/1 6/1to5/1"/>
    </vehicle>
    <vehicle id="139" depart="222.40">
        <route edges="gneE5 4/1to3/1 3/1to2/1 2/1to1/1 1/1to8/1 8/1to1/1"/>
    </vehicle>
    <vehicle id="140" depart="224.00">
        <route edges="gneE3 7/1to8/1 8/1to7/1"/>
    </vehicle>
    <vehicle id="141" depart="225.60">
        <route edges="gneE5 4/1to5/1 5/1to4/1"/>
    </vehicle>
    <vehicle id="142" depart="227.20">
        <route edges="gneE3 7/1to8/1 8/1to1/1 1/1to2/1 2/1to3/1"/>
    </vehicle>
    <vehicle id="143" depart="228.80">
        <route edges="6/1to5/1 5/1to6/1 6/1to7/1 7/1to8/1 8/1to7/1"/>
    </vehicle>
    <vehicle id="144" depart="230.40">
        <route edges="gneE2 3/1to4/1 4/1to5/1"/>
    </vehicle>
    <vehicle id="145" depart="232.00">
        <route edges="2/1to3/1 3/1to2/1"/>
    </vehicle>
    <vehicle id="146" depart="233.60">
        <route edges="gneE1 1/1to8/1 8/1to7/1"/>
    </vehicle>
    <vehicle id="147" depart="235.20">
        <route edges="gneE6 2/1to1/1 1/1to8/1"/>
    </vehicle>
    <vehicle id="148" depart="236.80">
        <route edges="gneE4 6/1to7/1 7/1to8/1 8/1to1/1 1/1to2/1 2/1to1/1"/>
    </vehicle>
    <vehicle id="149" depart="238.40">
        <route edges="5/1to6/1 6/1to5/1 5/1to4/1 4/1to3/1 3/1to4/1"/>
    </vehicle>
    <vehicle id="150" depart="240.00">
        <route edges="gneE4 6/1to7/1 7/1to8/1 8/1to1/1 1/1to2/1 2/1to3/1"/>
    </vehicle>
    <vehicle id="151" depart="241.60">
        <route edges="gneE3 7/1to6/1 6/1to7/1"/>
    </vehicle>
    <vehicle id="152" depart="243.20">
        <route edges="gneE5 4/1to5/1 5/1to6/1 6/1to7/1"/>
    </vehicle>
    <vehicle id="153" depart="244.80">
        <route edges="gneE4 6/1to5/1 5/1to6/1"/>
    </vehicle>
    <vehicle id="154" depart="246.40">
        <route edges="5/1to6/1 6/1to5/1 5/1to4/1 4/1to3/1"/>
    </vehicle>
    <vehicle id="155" depart="248.00">
        <route edges="gneE7 8/1to7/1 7/1to8/1"/>
    </vehicle>
    <vehicle id="156" depart="249.60">
        <route edges="gneE0 5/1to4/1 4/1to3/1 3/1to2/1 2/1to3/1"/>
    </vehicle>
    <vehicle id="157" depart="251.20">
        <route edges="gneE5 4/1to3/1 3/1to2/1"/>
    </vehicle>
    <vehicle id="158" depart="252.80">
        <route edges="gneE7 8/1to1/1 1/1to2/1"/>
    </vehicle>
    <vehicle id="159" depart="254.40">
        <route edges="gneE1 1/1to2/1 2/1to3/1 3/1to4/1 4/1to5/1 5/1to4/1"/>
    </vehicle>
    <vehicle id="160" depart="256.00">
        <route edges="gneE5 4/1to5/1 5/1to4/1"/>
    </vehicle>
    <vehicle id="161" depart="257.60">
        <route edges="6/1to7/1 7/1to8/1 8/1to1/1 1/1to2/1"/>
    </vehicle>
    <vehicle id="162" depart="259.20">
        <route edges="gneE7 8/1to7/1 7/1to6/1 6/1to7/1"/>
    </vehicle>
    <vehicle id="163" depart="260.80">
        <route edges="gneE1 1/1to2/1 2/1to3/1 3/1to4/1"/>
    </vehicle>
    <vehicle id="164" depart="262.40">
        <route edges="gneE4 6/1to7/1 7/1to6/1"/>
    </vehicle>
    <vehicle id="165" depart="264.00">
        <route edges="gneE3 7/1to6/1 6/1to5/1 5/1to4/1"/>
    </vehicle>
    <vehicle id="166" depart="265.60">
        <route edges="gneE6 2/1to3/1 3/1to4/1 4/1to3/1"/>
    </vehicle>
    <vehicle id="167" depart="267.20">
        <route edges="gneE5 4/1to5/1 5/1to6/1 6/1to7/1 7/1to8/1"/>
    </vehicle>
    <vehicle id="168" depart="268.80">
        <route edges="gneE6 2/1to3/1 3/1to4/1 4/1to3/1"/>
    </vehicle>
    <vehicle id="169" depart="270.40">
        <route edges="gneE4 6/1to7/1 7/1to6/1"/>
    </vehicle>
    <vehicle id="170" depart="272.00">
        <route edges="gneE0 5/1to6/1 6/1to7/1"/>
    </vehicle>
    <vehicle id="171" depart="273.60">
        <route edges="1/1to8/1 8/1to1/1 1/1to2/1 2/1to1/1"/>
    </vehicle>
    <vehicle id="172" depart="275.20">
        <route edges="gneE3 7/1to6/1 6/1to5/1 5/1to4/1 4/1to5/1"/>
    </vehicle>
    <vehicle id="173" depart="276.80">
        <route edges="gneE0 5/1to4/1 4/1to5/1"/>
    </vehicle>
    <vehicle id="174" depart="278.40">
        <route edges="1/1to2/1 2/1to1/1"/>
    </vehicle>
    <vehicle id="175" depart="280.00">
        <route edges="gneE7 8/1to1/1 1/1to2/1 2/1to3/1 3/1to4/1 4/1to3/1"/>
    </vehicle>
    <vehicle id="176" depart="281.60">
        <route edges="gneE2 3/1to4/1 4/1to3/1"/>
    </vehicle>
    <vehicle id="177" depart="283.20">
        <route edges="gneE6 2/1to3/1 3/1to4/1"/>
    </vehicle>
    <vehicle id="178" depart="284.80">
        <route edges="gneE2 3/1to4/1 4/1to5/1 5/1to6/1 6/1to7/1"/>
    </vehicle>
    <vehicle id="179" depart="286.40">
        <route edges="gneE6 2/1to3/1 3/1to4/1 4/1to5/1 5/1to6/1 6/1to5/1"/>
    </vehicle>
    <vehicle id="180" depart="288.00">
        <route edges="gneE0 5/1to4/1 4/1to5/1"/>
    </vehicle>
    <vehicle id="181" depart="289.60">
        <route edges="gneE3 7/1to8/1 8/1to7/1"/>
    </vehicle>
    <vehicle id="182" depart="291.20">
        <route edges="gneE7 8/1to7/1 7/1to6/1 6/1to7/1"/>
    </vehicle>
    <vehicle id="183" depart="292.80">
        <route edges="gneE0 5/1to4/1 4/1to3/1 3/1to4/1"/>
    </vehicle>
    <vehicle id="184" depart="294.40">
        <route edges="gneE5 4/1to5/1 5/1to6/1 6/1to7/1"/>
    </vehicle>
    <vehicle id="185" depart="296.00">
        <route edges="gneE2 3/1to4/1 4/1to5/1 5/1to6/1 6/1to7/1"/>
    </vehicle>
    <vehicle id="186" depart="297.60">
        <route edges="3/1to4/1 4/1to3/1 3/1to2/1 2/1to1/1"/>
    </vehicle>
    <vehicle id="187" depart="299.20">
        <route edges="gneE2 3/1to4/1 4/1to5/1 5/1to6/1 6/1to7/1"/>
    </vehicle>
    <vehicle id="188" depart="300.80">
        <route edges="gneE7 8/1to7/1 7/1to6/1 6/1to5/1 5/1to6/1"/>
    </vehicle>
    <vehicle id="189" depart="302.40">
        <route edges="gneE7 8/1to1/1 1/1to8/1"/>
    </vehicle>
    <vehicle id="190" depart="304.00">
        <route edges="gneE7 8/1to1/1 1/1to2/1"/>
    </vehicle>
    <vehicle id="191" depart="305.60">
        <route edges="6/1to7/1 7/1to6/1 6/1to5/1 5/1to4/1 4/1to3/1"/>
    </vehicle>
    <vehicle id="192" depart="307.20">
        <route edges="gneE7 8/1to1/1"/>
    </vehicle>
    <vehicle id="193" depart="308.80">
        <route edges="gneE6 2/1to1/1 1/1to8/1"/>
    </vehicle>
    <vehicle id="194" depart="310.40">
        <route edges="gneE1 1/1to8/1"/>
    </vehicle>
    <vehicle id="195" depart="312.00">
        <route edges="gneE3 7/1to6/1 6/1to7/1"/>
    </vehicle>
    <vehicle id="196" depart="313.60">
        <route edges="gneE2 3/1to4/1 4/1to3/1"/>
    </vehicle>
    <vehicle id="197" depart="315.20">
        <route edges="2/1to1/1 1/1to8/1 8/1to7/1 7/1to6/1 6/1to7/1"/>
    </vehicle>
    <vehicle id="198" depart="316.80">
        <route edges="gneE7 8/1to1/1 1/1to2/1 2/1to3/1 3/1to4/1 4/1to3/1"/>
    </vehicle>
    <vehicle id="199" depart="318.40">
        <route edges="gneE4 6/1to7/1 7/1to8/1 8/1to1/1"/>
    </vehicle>
    <vehicle id="200" depart="320.00">
        <route edges="gneE4 6/1to7/1 7/1to8/1 8/1to1/1 1/1to2/1 2/1to3/1"/>
    </vehicle>
    <vehicle id="201" depart="321.60">
        <route edges="gneE2 3/1to4/1 4/1to5/1 5/1to6/1 6/1to7/1 7/1to6/1"/>
    </vehicle>
    <vehicle id="202" depart="323.20">
        <route edges="6/1to5/1 5/1to6/1 6/1to7/1 7/1to6/1"/>
    </vehicle>
    <vehicle id="203" depart="324.80">
        <route edges="gneE0 5/1to4/1 4/1to3/1 3/1to4/1"/>
    </vehicle>
    <vehicle id="204" depart="326.40">
        <route edges="gneE6 2/1to3/1 3/1to4/1 4/1to5/1 5/1to6/1"/>
    </vehicle>
    <vehicle id="205" depart="328.00">
        <route edges="gneE1 1/1to2/1 2/1to3/1 3/1to4/1 4/1to5/1 5/1to6/1"/>
    </vehicle>
    <vehicle id="206" depart="329.60">
        <route edges="gneE3 7/1to6/1"/>
    </vehicle>
    <vehicle id="207" depart="331.20">
        <route edges="gneE7 8/1to7/1 7/1to6/1 6/1to5/1"/>
    </vehicle>
    <vehicle id="208" depart="332.80">
        <route edges="gneE0 5/1to4/1 4/1to3/1 3/1to2/1"/>
    </vehicle>
    <vehicle id="209" depart="334.40">
        <route edges="gneE4 6/1to7/1 7/1to8/1 8/1to1/1 1/1to2/1 2/1to1/1"/>
    </vehicle>
    <vehicle id="210" depart="336.00">
        <route edges="gneE4 6/1to7/1 7/1to8/1 8/1to1/1 1/1to2/1 2/1to3/1"/>
    </vehicle>
    <vehicle id="211" depart="337.60">
        <route edges="gneE1 1/1to8/1"/>
    </vehicle>
    <vehicle id="212" depart="339.20">
        <route edges="gneE5 4/1to3/1 3/1to2/1"/>
    </vehicle>
    <vehicle id="213" depart="340.80">
        <route edges="gneE1 1/1to2/1 2/1to3/1 3/1to4/1 4/1to3/1"/>
    </vehicle>
    <vehicle id="214" depart="342.40">
        <route edges="gneE5 4/1to3/1 3/1to2/1 2/1to1/1 1/1to8/1"/>
    </vehicle>
    <vehicle id="215" depart="344.00">
        <route edges="2/1to3/1 3/1to2/1 2/1to1/1 1/1to2/1"/>
    </vehicle>
    <vehicle id="216" depart="345.60">
        <route edges="7/1to8/1 8/1to7/1 7/1to6/1 6/1to5/1 5/1to4/1"/>
    </vehicle>
    <vehicle id="217" depart="347.20">
        <route edges="gneE1 1/1to8/1 8/1to7/1 7/1to6/1 6/1to5/1"/>
    </vehicle>
    <vehicle id="218" depart="348.80">
        <route edges="gneE4 6/1to7/1 7/1to8/1 8/1to7/1"/>
    </vehicle>
    <vehicle id="219" depart="350.40">
        <route edges="gneE1 1/1to8/1 8/1to7/1"/>
    </vehicle>
    <vehicle id="220" depart="352.00">
        <route edges="gneE6 2/1to1/1 1/1to8/1 8/1to7/1 7/1to8/1"/>
    </vehicle>
    <vehicle id="221" depart="353.60">
        <route edges="6/1to7/1 7/1to8/1 8/1to7/1"/>
    </vehicle>
    <vehicle id="222" depart="355.20">
        <route edges="gneE2 3/1to4/1 4/1to5/1 5/1to6/1"/>
    </vehicle>
    <vehicle id="223" depart="356.80">
        <route edges="gneE3 7/1to8/1 8/1to1/1 1/1to2/1 2/1to1/1"/>
    </vehicle>
    <vehicle id="224" depart="358.40">
        <route edges="gneE0 5/1to6/1 6/1to7/1 7/1to8/1 8/1to1/1"/>
    </vehicle>
    <vehicle id="225" depart="360.00">
        <route edges="gneE7 8/1to1/1 1/1to2/1 2/1to3/1 3/1to4/1 4/1to5/1"/>
    </vehicle>
    <vehicle id="226" depart="361.60">
        <route edges="gneE3 7/1to6/1 6/1to5/1 5/1to4/1 4/1to5/1"/>
    </vehicle>
    <vehicle id="227" depart="363.20">
        <route edges="gneE1 1/1to2/1 2/1to1/1"/>
    </vehicle>
    <vehicle id="228" depart="364.80">
        <route edges="gneE3 7/1to6/1 6/1to5/1 5/1to4/1"/>
    </vehicle>
    <vehicle id="229" depart="366.40">
        <route edges="gneE1 1/1to8/1 8/1to7/1 7/1to6/1 6/1to5/1"/>
    </vehicle>
    <vehicle id="230" depart="368.00">
        <route edges="gneE4 6/1to7/1"/>
    </vehicle>
    <vehicle id="231" depart="369.60">
        <route edges="4/1to5/1 5/1to4/1 4/1to3/1 3/1to2/1 2/1to3/1"/>
    </vehicle>
    <vehicle id="232" depart="371.20">
        <route edges="gneE1 1/1to8/1 8/1to1/1"/>
    </vehicle>
    <vehicle id="233" depart="372.80">
        <route edges="gneE7 8/1to1/1 1/1to2/1 2/1to3/1 3/1to2/1"/>
    </vehicle>
    <vehicle id="234" depart="374.40">
        <route edges="gneE6 2/1to1/1 1/1to8/1"/>
    </vehicle>
    <vehicle id="235" depart="376.00">
        <route edges="gneE0 5/1to6/1 6/1to7/1 7/1to6/1"/>
    </vehicle>
    <vehicle id="236" depart="377.60">
        <route edges="gneE0 5/1to4/1 4/1to3/1"/>
    </vehicle>
    <vehicle id="237" depart="379.20">
        <route edges="6/1to5/1 5/1to4/1 4/1to3/1"/>
    </vehicle>
    <vehicle id="238" depart="380.80">
        <route edges="gneE0 5/1to6/1 6/1to7/1 7/1to8/1 8/1to1/1"/>
    </vehicle>
    <vehicle id="239" depart="382.40">
        <route edges="gneE3 7/1to8/1"/>
    </vehicle>
    <vehicle id="240" depart="384.00">
        <route edges="8/1to7/1 7/1to6/1 6/1to7/1"/>
    </vehicle>
    <vehicle id="241" depart="385.60">
        <route edges="gneE4 6/1to5/1 5/1to4/1 4/1to3/1 3/1to2/1"/>
    </vehicle>
    <vehicle id="242" depart="387.20">
        <route edges="gneE6 2/1to3/1 3/1to4/1 4/1to3/1"/>
    </vehicle>
    <vehicle id="243" depart="388.80">
        <route edges="gneE5 4/1to3/1 3/1to2/1 2/1to1/1 1/1to8/1 8/1to7/1"/>
    </vehicle>
    <vehicle id="244" depart="390.40">
        <route edges="gneE2 3/1to4/1 4/1to5/1 5/1to6/1 6/1to7/1"/>
    </vehicle>
    <vehicle id="245" depart="392.00">
        <route edges="gneE1 1/1to8/1 8/1to7/1"/>
    </vehicle>
    <vehicle id="246" depart="393.60">
        <route edges="gneE3 7/1to6/1 6/1to5/1 5/1to4/1 4/1to3/1"/>
    </vehicle>
    <vehicle id="247" depart="395.20">
        <route edges="gneE7 8/1to7/1"/>
    </vehicle>
    <vehicle id="248" depart="396.80">
        <route edges="gneE6 2/1to3/1"/>
    </vehicle>
    <vehicle id="249" depart="398.40">
        <route edges="4/1to5/1 5/1to6/1 6/1to5/1"/>
    </vehicle>
    <vehicle id="250" depart="400.00">
        <route edges="gneE0 5/1to4/1"/>
    </vehicle>
    <vehicle id="251" depart="401.60">
        <route edges="gneE3 7/1to6/1 6/1to5/1"/>
    </vehicle>
    <vehicle id="252" depart="403.20">
        <route edges="gneE5 4/1to5/1 5/1to4/1"/>
    </vehicle>
    <vehicle id="253" depart="404.80">
        <route edges="gneE3 7/1to6/1 6/1to5/1 5/1to6/1"/>
    </vehicle>
    <vehicle id="254" depart="406.40">
        <route edges="gneE7 8/1to7/1"/>
    </vehicle>
    <vehicle id="255" depart="408.00">
        <route edges="1/1to8/1 8/1to7/1 7/1to6/1 6/1to5/1"/>
    </vehicle>
    <vehicle id="256" depart="409.60">
        <route edges="gneE2 3/1to4/1"/>
    </vehicle>
    <vehicle id="257" depart="411.20">
        <route edges="gneE0 5/1to4/1"/>
    </vehicle>
    <vehicle id="258" depart="412.80">
        <route edges="gneE7 8/1to7/1 7/1to8/1"/>
    </vehicle>
    <vehicle id="259" depart="414.40">
        <route edges="6/1to7/1 7/1to6/1 6/1to5/1 5/1to4/1 4/1to3/1"/>
    </vehicle>
    <vehicle id="260" depart="416.00">
        <route edges="gneE2 3/1to2/1 2/1to3/1"/>
    </vehicle>
    <vehicle id="261" depart="417.60">