<?xml version="1.0" encoding="UTF-8"?>

<!-- generated on Sun Sep 23 21:18:18 2018 by SUMO duarouter Version 0.30.0
<?xml version="1.0" encoding="UTF-8"?>

<configuration xmlns:xsi="http://www.w3.org/2001/XMLSchema-instance" xsi:noNamespaceSchemaLocation="http://sumo.dlr.de/xsd/duarouterConfiguration.xsd">

    <input>
        <net-file value="spider/spider.net.xml"/>
        <route-files value="trips.trips.xml"/>
    </input>

    <output>
        <output-file value="spider/route/spider-2.1-8.rou.xml"/>
    </output>

    <processing>
        <ignore-errors value="true"/>
    </processing>

    <time>
        <begin value="0.0"/>
        <end value="5400.0"/>
    </time>

    <report>
        <no-warnings value="true"/>
        <no-step-log value="true"/>
    </report>

</configuration>
-->

<routes xmlns:xsi="http://www.w3.org/2001/XMLSchema-instance" xsi:noNamespaceSchemaLocation="http://sumo.dlr.de/xsd/routes_file.xsd">
    <vehicle id="0" depart="0.00">
        <route edges="gneE2 3/1to4/1 4/1to5/1 5/1to6/1 6/1to7/1 7/1to6/1"/>
    </vehicle>
    <vehicle id="1" depart="2.10">
        <route edges="gneE3 7/1to8/1 8/1to1/1"/>
    </vehicle>
    <vehicle id="2" depart="4.20">
        <route edges="gneE0 5/1to4/1 4/1to3/1 3/1to2/1 2/1to1/1"/>
    </vehicle>
    <vehicle id="3" depart="6.30">
        <route edges="gneE5 4/1to3/1 3/1to2/1 2/1to1/1 1/1to8/1 8/1to7/1"/>
    </vehicle>
    <vehicle id="4" depart="8.40">
        <route edges="gneE3 7/1to8/1 8/1to1/1 1/1to2/1 2/1to1/1"/>
    </vehicle>
    <vehicle id="5" depart="10.50">
        <route edges="gneE4 6/1to5/1 5/1to4/1 4/1to3/1"/>
    </vehicle>
    <vehicle id="6" depart="12.60">
        <route edges="gneE5 4/1to5/1 5/1to6/1 6/1to7/1 7/1to6/1"/>
    </vehicle>
    <vehicle id="7" depart="14.70">
        <route edges="gneE5 4/1to5/1 5/1to6/1"/>
    </vehicle>
    <vehicle id="8" depart="16.80">
        <route edges="gneE0 5/1to4/1 4/1to3/1"/>
    </vehicle>
    <vehicle id="9" depart="18.90">
        <route edges="gneE5 4/1to5/1 5/1to6/1 6/1to7/1"/>
    </vehicle>
    <vehicle id="10" depart="21.00">
        <route edges="gneE2 3/1to2/1 2/1to1/1 1/1to8/1"/>
    </vehicle>
    <vehicle id="11" depart="23.10">
        <route edges="gneE2 3/1to2/1 2/1to1/1 1/1to8/1"/>
    </vehicle>
    <vehicle id="12" depart="25.20">
        <route edges="gneE5 4/1to5/1 5/1to6/1"/>
    </vehicle>
    <vehicle id="13" depart="27.30">
        <route edges="gneE5 4/1to3/1 3/1to2/1 2/1to1/1"/>
    </vehicle>
    <vehicle id="14" depart="29.40">
        <route edges="gneE3 7/1to8/1 8/1to1/1 1/1to2/1 2/1to1/1"/>
    </vehicle>
    <vehicle id="15" depart="31.50">
        <route edges="gneE4 6/1to7/1 7/1to8/1 8/1to1/1 1/1to2/1"/>
    </vehicle>
    <vehicle id="16" depart="33.60">
        <route edges="gneE0 5/1to6/1 6/1to7/1 7/1to8/1 8/1to7/1"/>
    </vehicle>
    <vehicle id="17" depart="35.70">
        <route edges="gneE2 3/1to4/1 4/1to5/1 5/1to6/1 6/1to7/1"/>
    </vehicle>
    <vehicle id="18" depart="37.80">
        <route edges="gneE2 3/1to4/1 4/1to5/1 5/1to6/1 6/1to5/1"/>
    </vehicle>
    <vehicle id="19" depart="39.90">
        <route edges="gneE2 3/1to4/1 4/1to5/1 5/1to6/1 6/1to7/1 7/1to8/1"/>
    </vehicle>
    <vehicle id="20" depart="42.00">
        <route edges="gneE5 4/1to5/1 5/1to6/1 6/1to7/1 7/1to6/1"/>
    </vehicle>
    <vehicle id="21" depart="44.10">
        <route edges="gneE2 3/1to2/1 2/1to1/1"/>
    </vehicle>
    <vehicle id="22" depart="46.20">
        <route edges="gneE7 8/1to7/1 7/1to6/1 6/1to5/1 5/1to6/1"/>
    </vehicle>
    <vehicle id="23" depart="48.30">
        <route edges="gneE7 8/1to1/1 1/1to2/1 2/1to3/1 3/1to4/1"/>
    </vehicle>
    <vehicle id="24" depart="50.40">
        <route edges="gneE2 3/1to4/1 4/1to5/1 5/1to6/1 6/1to5/1"/>
    </vehicle>
    <vehicle id="25" depart="52.50">
        <route edges="gneE4 6/1to5/1 5/1to4/1"/>
    </vehicle>
    <vehicle id="26" depart="54.60">
        <route edges="gneE6 2/1to3/1 3/1to4/1 4/1to5/1 5/1to6/1"/>
    </vehicle>
    <vehicle id="27" depart="56.70">
        <route edges="gneE5 4/1to5/1 5/1to6/1 6/1to7/1"/>
    </vehicle>
    <vehicle id="28" depart="58.80">
        <route edges="gneE1 1/1to2/1 2/1to3/1 3/1to4/1 4/1to3/1"/>
    </vehicle>
    <vehicle id="29" depart="60.90">
        <route edges="gneE5 4/1to3/1 3/1to2/1 2/1to1/1 1/1to8/1 8/1to1/1"/>
    </vehicle>
    <vehicle id="30" depart="63.00">
        <route edges="gneE3 7/1to6/1 6/1to5/1 5/1to4/1"/>
    </vehicle>
    <vehicle id="31" depart="65.10">
        <route edges="gneE1 1/1to8/1 8/1to7/1"/>
    </vehicle>
    <vehicle id="32" depart="67.20">
        <route edges="gneE5 4/1to5/1 5/1to6/1"/>
    </vehicle>
    <vehicle id="33" depart="69.30">
        <route edges="gneE4 6/1to7/1 7/1to8/1 8/1to1/1 1/1to2/1"/>
    </vehicle>
    <vehicle id="34" depart="71.40">
        <route edges="gneE5 4/1to3/1 3/1to2/1 2/1to1/1 1/1to8/1"/>
    </vehicle>
    <vehicle id="35" depart="73.50">
        <route edges="gneE7 8/1to1/1 1/1to2/1 2/1to3/1 3/1to2/1"/>
    </vehicle>
    <vehicle id="36" depart="75.60">
        <route edges="gneE3 7/1to8/1 8/1to1/1"/>
    </vehicle>
    <vehicle id="37" depart="77.70">
        <route edges="gneE3 7/1to6/1 6/1to5/1 5/1to4/1 4/1to3/1"/>
    </vehicle>
    <vehicle id="38" depart="79.80">
        <route edges="gneE5 4/1to3/1 3/1to2/1 2/1to1/1 1/1to8/1 8/1to7/1"/>
    </vehicle>
    <vehicle id="39" depart="81.90">
        <route edges="gneE5 4/1to5/1 5/1to6/1 6/1to7/1 7/1to8/1"/>
    </vehicle>
    <vehicle id="40" depart="84.00">
        <route edges="gneE2 3/1to4/1 4/1to5/1 5/1to6/1 6/1to7/1"/>
    </vehicle>
    <vehicle id="41" depart="86.10">
        <route edges="gneE5 4/1to3/1 3/1to2/1"/>
    </vehicle>
    <vehicle id="42" depart="88.20">
        <route edges="gneE5 4/1to3/1 3/1to2/1 2/1to1/1"/>
    </vehicle>
    <vehicle id="43" depart="90.30">
        <route edges="gneE7 8/1to1/1 1/1to2/1 2/1to3/1 3/1to2/1"/>
    </vehicle>
    <vehicle id="44" depart="92.40">
        <route edges="gneE2 3/1to4/1 4/1to5/1 5/1to6/1 6/1to7/1"/>
    </vehicle>
    <vehicle id="45" depart="94.50">
        <route edges="gneE4 6/1to7/1 7/1to8/1"/>
    </vehicle>
    <vehicle id="46" depart="96.60">
        <route edges="gneE5 4/1to3/1 3/1to2/1 2/1to1/1 1/1to8/1 8/1to1/1"/>
    </vehicle>
    <vehicle id="47" depart="98.70">
        <route edges="gneE0 5/1to4/1 4/1to3/1 3/1to2/1"/>
    </vehicle>
    <vehicle id="48" depart="100.80">
        <route edges="gneE1 1/1to2/1 2/1to3/1 3/1to4/1 4/1to3/1"/>
    </vehicle>
    <vehicle id="49" depart="102.90">
        <route edges="gneE1 1/1to2/1 2/1to3/1 3/1to4/1 4/1to5/1 5/1to6/1"/>
    </vehicle>
    <vehicle id="50" depart="105.00">
        <route edges="gneE7 8/1to7/1 7/1to6/1 6/1to5/1"/>
    </vehicle>
    <vehicle id="51" depart="107.10">
        <route edges="gneE1 1/1to2/1 2/1to3/1 3/1to4/1 4/1to3/1"/>
    </vehicle>
    <vehicle id="52" depart="109.20">
        <route edges="gneE2 3/1to4/1 4/1to5/1 5/1to6/1 6/1to7/1 7/1to8/1"/>
    </vehicle>
    <vehicle id="53" depart="111.30">
        <route edges="gneE3 7/1to6/1 6/1to5/1 5/1to4/1 4/1to3/1"/>
    </vehicle>
    <vehicle id="54" depart="113.40">
        <route edges="gneE3 7/1to8/1 8/1to1/1 1/1to2/1 2/1to3/1 3/1to4/1"/>
    </vehicle>
    <vehicle id="55" depart="115.50">
        <route edges="gneE5 4/1to3/1 3/1to2/1"/>
    </vehicle>
    <vehicle id="56" depart="117.60">
        <route edges="gneE2 3/1to2/1 2/1to1/1 1/1to8/1 8/1to7/1"/>
    </vehicle>
    <vehicle id="57" depart="119.70">
        <route edges="gneE6 2/1to3/1 3/1to4/1"/>
    </vehicle>
    <vehicle id="58" depart="121.80">
        <route edges="gneE1 1/1to2/1 2/1to3/1 3/1to4/1"/>
    </vehicle>
    <vehicle id="59" depart="123.90">
        <route edges="gneE3 7/1to6/1 6/1to5/1 5/1to4/1 4/1to3/1"/>
    </vehicle>
    <vehicle id="60" depart="126.00">
        <route edges="gneE1 1/1to2/1 2/1to3/1 3/1to4/1 4/1to3/1"/>
    </vehicle>
    <vehicle id="61" depart="128.10">
        <route edges="gneE5 4/1to3/1 3/1to2/1 2/1to1/1 1/1to8/1"/>
    </vehicle>
    <vehicle id="62" depart="130.20">
        <route edges="gneE0 5/1to4/1 4/1to3/1 3/1to2/1 2/1to3/1"/>
    </vehicle>
    <vehicle id="63" depart="132.30">
        <route edges="gneE1 1/1to8/1 8/1to7/1 7/1to6/1"/>
    </vehicle>
    <vehicle id="64" depart="134.40">
        <route edges="gneE0 5/1to6/1 6/1to7/1 7/1to8/1 8/1to1/1"/>
    </vehicle>
    <vehicle id="65" depart="136.50">
        <route edges="1/1to8/1 8/1to1/1 1/1to2/1 2/1to3/1 3/1to4/1 4/1to5/1"/>
    </vehicle>
    <vehicle id="66" depart="138.60">
        <route edges="gneE1 1/1to8/1 8/1to7/1 7/1to6/1 6/1to5/1"/>
    </vehicle>
    <vehicle id="67" depart="140.70">
        <route edges="gneE7 8/1to7/1 7/1to6/1 6/1to5/1"/>
    </vehicle>
    <vehicle id="68" depart="142.80">
        <route edges="gneE6 2/1to3/1 3/1to4/1 4/1to5/1 5/1to6/1 6/1to5/1"/>
    </vehicle>
    <vehicle id="69" depart="144.90">
        <route edges="gneE0 5/1to4/1 4/1to3/1 3/1to2/1 2/1to1/1 1/1to2/1"/>
    </vehicle>
    <vehicle id="70" depart="147.00">
        <route edges="gneE4 6/1to7/1 7/1to8/1 8/1to1/1 1/1to2/1"/>
    </vehicle>
    <vehicle id="71" depart="149.10">
        <route edges="gneE0 5/1to6/1 6/1to7/1 7/1to8/1 8/1to7/1"/>
    </vehicle>
    <vehicle id="72" depart="151.20">
        <route edges="gneE3 7/1to6/1 6/1to5/1 5/1to4/1"/>
    </vehicle>
    <vehicle id="73" depart="153.30">
        <route edges="gneE3 7/1to8/1 8/1to1/1 1/1to2/1 2/1to3/1"/>
    </vehicle>
    <vehicle id="74" depart="155.40">
        <route edges="gneE2 3/1to4/1 4/1to5/1 5/1to6/1 6/1to5/1"/>
    </vehicle>
    <vehicle id="75" depart="157.50">
        <route edges="gneE7 8/1to1/1 1/1to2/1 2/1to3/1 3/1to2/1"/>
    </vehicle>
    <vehicle id="76" depart="159.60">
        <route edges="gneE4 6/1to7/1 7/1to8/1 8/1to1/1 1/1to8/1"/>
    </vehicle>
    <vehicle id="77" depart="161.70">
        <route edges="gneE1 1/1to8/1 8/1to7/1 7/1to6/1 6/1to7/1"/>
    </vehicle>
    <vehicle id="78" depart="163.80">
        <route edges="gneE2 3/1to2/1 2/1to1/1 1/1to8/1 8/1to7/1"/>
    </vehicle>
    <vehicle id="79" depart="165.90">
        <route edges="gneE4 6/1to5/1 5/1to4/1 4/1to3/1 3/1to4/1"/>
    </vehicle>
    <vehicle id="80" depart="168.00">
        <route edges="gneE3 7/1to8/1 8/1to1/1"/>
    </vehicle>
    <vehicle id="81" depart="170.10">
        <route edges="gneE1 1/1to2/1 2/1to3/1 3/1to4/1 4/1to5/1 5/1to6/1"/>
    </vehicle>
    <vehicle id="82" depart="172.20">
        <route edges="gneE2 3/1to2/1 2/1to1/1 1/1to8/1"/>
    </vehicle>
    <vehicle id="83" depart="174.30">
        <route edges="gneE7 8/1to1/1 1/1to2/1 2/1to3/1 3/1to2/1"/>
    </vehicle>
    <vehicle id="84" depart="176.40">
        <route edges="gneE5 4/1to3/1 3/1to2/1 2/1to1/1 1/1to8/1 8/1to7/1"/>
    </vehicle>
    <vehicle id="85" depart="178.50">
        <route edges="gneE5 4/1to3/1 3/1to2/1"/>
    </vehicle>
    <vehicle id="86" depart="180.60">
        <route edges="gneE6 2/1to1/1 1/1to8/1"/>
    </vehicle>
    <vehicle id="87" depart="182.70">
        <route edges="gneE4 6/1to5/1 5/1to4/1 4/1to3/1"/>
    </vehicle>
    <vehicle id="88" depart="184.80">
        <route edges="gneE0 5/1to6/1 6/1to7/1 7/1to8/1 8/1to7/1"/>
    </vehicle>
    <vehicle id="89" depart="186.90">
        <route edges="gneE1 1/1to2/1 2/1to3/1 3/1to4/1 4/1to3/1"/>
    </vehicle>
    <vehicle id="90" depart="189.00">
        <route edges="gneE1 1/1to2/1 2/1to3/1 3/1to4/1 4/1to5/1"/>
    </vehicle>
    <vehicle id="91" depart="191.10">
        <route edges="gneE2 3/1to4/1 4/1to5/1 5/1to6/1 6/1to7/1 7/1to8/1"/>
    </vehicle>
    <vehicle id="92" depart="193.20">
        <route edges="gneE0 5/1to4/1 4/1to3/1 3/1to2/1 2/1to3/1"/>
    </vehicle>
    <vehicle id="93" depart="195.30">
        <route edges="gneE4 6/1to7/1 7/1to8/1 8/1to1/1 1/1to8/1"/>
    </vehicle>
    <vehicle id="94" depart="197.40">
        <route edges="gneE1 1/1to2/1 2/1to3/1 3/1to4/1"/>
    </vehicle>
    <vehicle id="95" depart="199.50">
        <route edges="gneE5 4/1to5/1 5/1to6/1"/>
    </vehicle>
    <vehicle id="96" depart="201.60">
        <route edges="gneE1 1/1to2/1 2/1to3/1 3/1to4/1 4/1to3/1"/>
    </vehicle>
    <vehicle id="97" depart="203.70">
        <route edges="gneE5 4/1to5/1 5/1to6/1"/>
    </vehicle>
    <vehicle id="98" depart="205.80">
        <route edges="7/1to8/1 8/1to1/1 1/1to2/1 2/1to3/1 3/1to4/1 4/1to3/1"/>
    </vehicle>
    <vehicle id="99" depart="207.90">
        <route edges="gneE4 6/1to5/1 5/1to4/1 4/1to3/1 3/1to2/1"/>
    </vehicle>
    <vehicle id="100" depart="210.00">
        <route edges="gneE6 2/1to1/1 1/1to8/1 8/1to7/1 7/1to6/1"/>
    </vehicle>
    <vehicle id="101" depart="212.10">
        <route edges="gneE3 7/1to6/1 6/1to5/1"/>
    </vehicle>
    <vehicle id="102" depart="214.20">
        <route edges="gneE0 5/1to4/1 4/1to3/1 3/1to2/1"/>
    </vehicle>
    <vehicle id="103" depart="216.30">
        <route edges="gneE4 6/1to5/1 5/1to4/1 4/1to3/1"/>
    </vehicle>
    <vehicle id="104" depart="218.40">
        <route edges="gneE5 4/1to3/1 3/1to2/1 2/1to1/1 1/1to8/1 8/1to1/1"/>
    </vehicle>
    <vehicle id="105" depart="220.50">
        <route edges="gneE4 6/1to5/1 5/1to4/1"/>
    </vehicle>
    <vehicle id="106" depart="222.60">
        <route edges="3/1to4/1 4/1to5/1 5/1to6/1 6/1to7/1"/>
    </vehicle>
    <vehicle id="107" depart="224.70">
        <route edges="gneE7 8/1to7/1 7/1to6/1"/>
    </vehicle>
    <vehicle id="108" depart="226.80">
        <route edges="gneE7 8/1to1/1 1/1to2/1 2/1to3/1 3/1to4/1"/>
    </vehicle>
    <vehicle id="109" depart="228.90">
        <route edges="7/1to8/1 8/1to1/1 1/1to2/1 2/1to3/1"/>
    </vehicle>
    <vehicle id="110" depart="231.00">
        <route edges="gneE1 1/1to8/1 8/1to7/1"/>
    </vehicle>
    <vehicle id="111" depart="233.10">
        <route edges="gneE2 3/1to4/1 4/1to5/1 5/1to6/1 6/1to7/1 7/1to8/1"/>
    </vehicle>
    <vehicle id="112" depart="235.20">
        <route edges="gneE2 3/1to4/1 4/1to5/1 5/1to6/1"/>
    </vehicle>
    <vehicle id="113" depart="237.30">
        <route edges="gneE0 5/1to4/1 4/1to3/1 3/1to2/1"/>
    </vehicle>
    <vehicle id="114" depart="239.40">
        <route edges="gneE0 5/1to4/1 4/1to3/1 3/1to2/1 2/1to1/1 1/1to2/1"/>
    </vehicle>
    <vehicle id="115" depart="241.50">
        <route edges="gneE2 3/1to4/1 4/1to5/1 5/1to6/1 6/1to7/1"/>
    </vehicle>
    <vehicle id="116" depart="243.60">
        <route edges="gneE0 5/1to6/1 6/1to7/1"/>
    </vehicle>
    <vehicle id="117" depart="245.70">
        <route edges="gneE1 1/1to8/1 8/1to7/1 7/1to6/1 6/1to7/1"/>
    </vehicle>
    <vehicle id="118" depart="247.80">
        <route edges="gneE0 5/1to4/1 4/1to3/1 3/1to2/1 2/1to1/1 1/1to2/1"/>
    </vehicle>
    <vehicle id="119" depart="249.90">
        <route edges="gneE5 4/1to3/1 3/1to2/1 2/1to1/1 1/1to2/1"/>
    </vehicle>
    <vehicle id="120" depart="252.00">
        <route edges="gneE2 3/1to4/1 4/1to5/1 5/1to6/1 6/1to7/1"/>
    </vehicle>
    <vehicle id="121" depart="254.10">
        <route edges="gneE0 5/1to6/1 6/1to7/1"/>
    </vehicle>
    <vehicle id="122" depart="256.20">
        <route edges="gneE6 2/1to1/1 1/1to8/1 8/1to7/1 7/1to6/1"/>
    </vehicle>
    <vehicle id="123" depart="258.30">
        <route edges="gneE1 1/1to8/1 8/1to7/1"/>
    </vehicle>
    <vehicle id="124" depart="260.40">
        <route edges="gneE1 1/1to2/1 2/1to3/1 3/1to4/1 4/1to5/1 5/1to4/1"/>
    </vehicle>
    <vehicle id="125" depart="262.50">
        <route edges="gneE2 3/1to2/1 2/1to1/1 1/1to8/1"/>
    </vehicle>
    <vehicle id="126" depart="264.60">
        <route edges="gneE3 7/1to8/1 8/1to1/1 1/1to2/1 2/1to3/1"/>
    </vehicle>
    <vehicle id="127" depart="266.70">
        <route edges="gneE5 4/1to3/1 3/1to2/1 2/1to1/1 1/1to8/1 8/1to7/1"/>
    </vehicle>
    <vehicle id="128" depart="268.80">
        <route edges="gneE0 5/1to6/1 6/1to7/1"/>
    </vehicle>
    <vehicle id="129" depart="270.90">
        <route edges="gneE1 1/1to2/1 2/1to3/1 3/1to4/1 4/1to3/1"/>
    </vehicle>
    <vehicle id="130" depart="273.00">
        <route edges="gneE3 7/1to6/1 6/1to5/1 5/1to4/1 4/1to3/1"/>
    </vehicle>
    <vehicle id="131" depart="275.10">
        <route edges="gneE0 5/1to6/1 6/1to7/1 7/1to8/1 8/1to1/1"/>
    </vehicle>
    <vehicle id="132" depart="277.20">
        <route edges="gneE2 3/1to4/1 4/1to5/1 5/1to6/1 6/1to7/1 7/1to8/1"/>
    </vehicle>
    <vehicle id="133" depart="279.30">
        <route edges="gneE2 3/1to4/1 4/1to5/1 5/1to6/1 6/1to7/1 7/1to6/1"/>
    </vehicle>
    <vehicle id="134" depart="281.40">
        <route edges="gneE4 6/1to5/1 5/1to4/1 4/1to3/1 3/1to4/1"/>
    </vehicle>
    <vehicle id="135" depart="283.50">
        <route edges="gneE3 7/1to6/1 6/1to5/1 5/1to4/1 4/1to5/1"/>
    </vehicle>
    <vehicle id="136" depart="285.60">
        <route edges="gneE0 5/1to6/1 6/1to7/1 7/1to8/1 8/1to7/1"/>
    </vehicle>
    <vehicle id="137" depart="287.70">
        <route edges="gneE2 3/1to4/1 4/1to5/1 5/1to6/1 6/1to5/1"/>
    </vehicle>
    <vehicle id="138" depart="289.80">
        <route edges="gneE4 6/1to7/1 7/1to8/1 8/1to1/1 1/1to2/1"/>
    </vehicle>
    <vehicle id="139" depart="291.90">
        <route edges="gneE2 3/1to4/1 4/1to5/1 5/1to6/1 6/1to7/1"/>
    </vehicle>
    <vehicle id="140" depart="294.00">
        <route edges="gneE4 6/1to7/1 7/1to8/1"/>
    </vehicle>
    <vehicle id="141" depart="296.10">
        <route edges="gneE4 6/1to5/1 5/1to4/1 4/1to3/1"/>
    </vehicle>
    <vehicle id="142" depart="298.20">
        <route edges="gneE0 5/1to6/1 6/1to7/1 7/1to8/1 8/1to7/1"/>
    </vehicle>
    <vehicle id="143" depart="300.30">
        <route edges="gneE5 4/1to5/1 5/1to6/1 6/1to7/1"/>
    </vehicle>
    <vehicle id="144" depart="302.40">
        <route edges="gneE7 8/1to1/1 1/1to2/1 2/1to3/1 3/1to4/1 4/1to3/1"/>
    </vehicle>
    <vehicle id="145" depart="304.50">
        <route edges="gneE1 1/1to2/1 2/1to3/1 3/1to4/1 4/1to3/1"/>
    </vehicle>
    <vehicle id="146" depart="306.60">
        <route edges="gneE4 6/1to7/1 7/1to8/1 8/1to1/1"/>
    </vehicle>
    <vehicle id="147" depart="308.70">
        <route edges="gneE4 6/1to7/1 7/1to8/1"/>
    </vehicle>
    <vehicle id="148" depart="310.80">
        <route edges="gneE7 8/1to7/1 7/1to6/1 6/1to5/1 5/1to6/1"/>
    </vehicle>
    <vehicle id="149" depart="312.90">
        <route edges="gneE7 8/1to1/1 1/1to2/1 2/1to3/1"/>
    </vehicle>
    <vehicle id="150" depart="315.00">
        <route edges="gneE0 5/1to6/1 6/1to7/1 7/1to8/1"/>
    </vehicle>
    <vehicle id="151" depart="317.10">
        <route edges="gneE6 2/1to1/1 1/1to8/1 8/1to7/1 7/1to8/1"/>
    </vehicle>
    <vehicle id="152" depart="319.20">
        <route edges="gneE3 7/1to8/1 8/1to1/1 1/1to2/1 2/1to3/1 3/1to2/1"/>
    </vehicle>
    <vehicle id="153" depart="321.30">
        <route edges="gneE5 4/1to3/1 3/1to2/1 2/1to1/1 1/1to2/1"/>
    </vehicle>
    <vehicle id="154" depart="323.40">
        <route edges="gneE2 3/1to4/1 4/1to5/1 5/1to6/1"/>
    </vehicle>
    <vehicle id="155" depart="325.50">
        <route edges="gneE4 6/1to7/1 7/1to8/1 8/1to1/1 1/1to8/1"/>
    </vehicle>
    <vehicle id="156" depart="327.60">
        <route edges="gneE7 8/1to7/1 7/1to6/1"/>
    </vehicle>
    <vehicle id="157" depart="329.70">
        <route edges="gneE2 3/1to2/1 2/1to1/1 1/1to8/1 8/1to1/1"/>
    </vehicle>
    <vehicle id="158" depart="331.80">
        <route edges="gneE7 8/1to7/1 7/1to6/1 6/1to5/1 5/1to4/1"/>
    </vehicle>
    <vehicle id="159" depart="333.90">
        <route edges="gneE2 3/1to4/1 4/1to5/1"/>
    </vehicle>
    <vehicle id="160" depart="336.00">
        <route edges="gneE0 5/1to6/1 6/1to7/1 7/1to8/1"/>
    </vehicle>
    <vehicle id="161" depart="338.10">
        <route edges="gneE4 6/1to7/1 7/1to8/1 8/1to1/1 1/1to2/1 2/1to1/1"/>
    </vehicle>
    <vehicle id="162" depart="340.20">
        <route edges="gneE2 3/1to2/1 2/1to1/1 1/1to8/1 8/1to7/1"/>
    </vehicle>
    <vehicle id="163" depart="342.30">
        <route edges="gneE4 6/1to7/1 7/1to8/1"/>
    </vehicle>
    <vehicle id="164" depart="344.40">
        <route edges="gneE7 8/1to7/1 7/1to6/1 6/1to5/1 5/1to6/1"/>
    </vehicle>
    <vehicle id="165" depart="346.50">
        <route edges="gneE0 5/1to4/1 4/1to3/1 3/1to2/1"/>
    </vehicle>
    <vehicle id="166" depart="348.60">
        <route edges="gneE0 5/1to6/1 6/1to7/1"/>
    </vehicle>
    <vehicle id="167" depart="350.70">
        <route edges="gneE4 6/1to7/1 7/1to8/1 8/1to1/1"/>
    </vehicle>
    <vehicle id="168" depart="352.80">
        <route edges="gneE3 7/1to8/1 8/1to1/1 1/1to2/1 2/1to3/1"/>
    </vehicle>
    <vehicle id="169" depart="354.90">
        <route edges="gneE6 2/1to1/1 1/1to8/1 8/1to7/1 7/1to8/1"/>
    </vehicle>
    <vehicle id="170" depart="357.00">
        <route edges="gneE5 4/1to5/1 5/1to6/1 6/1to7/1 7/1to6/1"/>
    </vehicle>
    <vehicle id="171" depart="359.10">
        <route edges="gneE2 3/1to4/1 4/1to5/1 5/1to6/1"/>
    </vehicle>
    <vehicle id="172" depart="361.20">
        <route edges="gneE3 7/1to8/1 8/1to1/1 1/1to2/1"/>
    </vehicle>
    <vehicle id="173" depart="363.30">
        <route edges="gneE6 2/1to3/1 3/1to4/1 4/1to5/1 5/1to6/1 6/1to7/1"/>
    </vehicle>
    <vehicle id="174" depart="365.40">
        <route edges="gneE0 5/1to4/1 4/1to3/1 3/1to2/1 2/1to3/1"/>
    </vehicle>
    <vehicle id="175" depart="367.50">
        <route edges="gneE1 1/1to8/1 8/1to7/1 7/1to6/1 6/1to7/1"/>
    </vehicle>
    <vehicle id="176" depart="369.60">
        <route edges="gneE2 3/1to4/1 4/1to5/1 5/1to6/1 6/1to5/1"/>
    </vehicle>
    <vehicle id="177" depart="371.70">
        <route edges="gneE5 4/1to3/1 3/1to2/1 2/1to1/1 1/1to2/1"/>
    </vehicle>
    <vehicle id="178" depart="373.80">
        <route edges="gneE5 4/1to3/1 3/1to2/1 2/1to1/1 1/1to2/1"/>
    </vehicle>
    <vehicle id="179" depart="375.90">
        <route edges="gneE2 3/1to4/1 4/1to5/1"/>
    </vehicle>
    <vehicle id="180" depart="378.00">
        <route edges="gneE1 1/1to8/1 8/1to7/1 7/1to6/1 6/1to5/1"/>
    </vehicle>
    <vehicle id="181" depart="380.10">
        <route edges="gneE6 2/1to3/1 3/1to4/1 4/1to5/1"/>
    </vehicle>
    <vehicle id="182" depart="382.20">
        <route edges="gneE7 8/1to1/1 1/1to2/1 2/1to3/1 3/1to4/1 4/1to5/1"/>
    </vehicle>
    <vehicle id="183" depart="384.30">
        <route edges="5/1to6/1 6/1to7/1 7/1to8/1 8/1to1/1 1/1to2/1 2/1to1/1"/>
    </vehicle>
    <vehicle id="184" depart="386.40">
        <route edges="gneE2 3/1to4/1 4/1to5/1 5/1to6/1 6/1to7/1 7/1to6/1"/>
    </vehicle>
    <vehicle id="185" depart="388.50">
        <route edges="gneE7 8/1to1/1 1/1to2/1 2/1to3/1 3/1to2/1"/>
    </vehicle>
    <vehicle id="186" depart="390.60">
        <route edges="gneE5 4/1to3/1 3/1to2/1 2/1to1/1 1/1to8/1 8/1to1/1"/>
    </vehicle>
    <vehicle id="187" depart="392.70">
        <route edges="gneE4 6/1to7/1 7/1to8/1 8/1to1/1 1/1to2/1 2/1to3/1"/>
    </vehicle>
    <vehicle id="188" depart="394.80">
        <route edges="gneE4 6/1to5/1 5/1to4/1 4/1to3/1 3/1to4/1"/>
    </vehicle>
    <vehicle id="189" depart="396.90">
        <route edges="gneE1 1/1to2/1 2/1to3/1 3/1to4/1 4/1to5/1 5/1to6/1"/>
    </vehicle>
    <vehicle id="190" depart="399.00">
        <route edges="gneE4 6/1to7/1 7/1to8/1"/>
    </vehicle>
    <vehicle id="191" depart="401.10">
        <route edges="gneE6 2/1to1/1 1/1to8/1 8/1to7/1 7/1to6/1"/>
    </vehicle>
    <vehicle id="192" depart="403.20">
        <route edges="gneE5 4/1to5/1 5/1to6/1 6/1to7/1"/>
    </vehicle>
    <vehicle id="193" depart="405.30">
        <route edges="gneE3 7/1to6/1 6/1to5/1 5/1to4/1 4/1to5/1"/>
    </vehicle>
    <vehicle id="194" depart="407.40">
        <route edges="gneE7 8/1to7/1 7/1to6/1 6/1to5/1"/>
    </vehicle>
    <vehicle id="195" depart="409.50">
        <route edges="gneE3 7/1to6/1 6/1to5/1 5/1to4/1"/>
    </vehicle>
    <vehicle id="196" depart="411.60">
        <route edges="gneE7 8/1to1/1 1/1to2/1 2/1to3/1 3/1to2/1"/>
    </vehicle>
    <vehicle id="197" depart="413.70">
        <route edges="gneE4 6/1to5/1 5/1to4/1 4/1to3/1 3/1to2/1"/>
    </vehicle>
    <vehicle id="198" depart="415.80">
        <route edges="gneE2 3/1to4/1 4/1to5/1"/>
    </vehicle>
    <vehicle id="199" depart="417.90">
        <route edges="gneE0 5/1to6/1 6/1to7/1 7/1to8/1"/>
    </vehicle>
    <vehicle id="200" depart="420.00">
        <route edges="gneE4 6/1to7/1 7/1to8/1"/>
    </vehicle>
    <vehicle id="201" depart="422.10">
        <route edges="gneE6 2/1to1/1 1/1to8/1 8/1to7/1"/>
    </vehicle>
    <vehicle id="202" depart="424.20">
        <route edges="gneE5 4/1to3/1 3/1to2/1 2/1to1/1 1/1to8/1"/>
    </vehicle>
    <vehicle id="203" depart="426.30">
        <route edges="gneE5 4/1to3/1 3/1to2/1 2/1to1/1 1/1to8/1 8/1to7/1"/>
    </vehicle>
    <vehicle id="204" depart="428.40">
        <route edges="gneE1 1/1to2/1 2/1to3/1 3/1to4/1 4/1to5/1"/>
    </vehicle>
    <vehicle id="205" depart="430.50">
        <route edges="gneE3 7/1to6/1 6/1to5/1 5/1to4/1"/>
    </vehicle>
    <vehicle id="206" depart="432.60">
        <route edges="gneE3 7/1to6/1 6/1to5/1 5/1to4/1 4/1to3/1"/>
    </vehicle>
    <vehicle id="207" depart="434.70">
        <route edges="gneE1 1/1to8/1 8/1to7/1 7/1to6/1"/>
    </vehicle>
    <vehicle id="208" depart="436.80">
        <route edges="gneE1 1/1to8/1 8/1to7/1 7/1to6/1"/>
    </vehicle>
    <vehicle id="209" depart="438.90">
        <route edges="gneE1 1/1to8/1 8/1to7/1 7/1to6/1 6/1to7/1"/>
    </vehicle>
    <vehicle id="210" depart="441.00">
        <route edges="gneE7 8/1to7/1 7/1to6/1 6/1to5/1 5/1to4/1"/>
    </vehicle>
    <vehicle id="211" depart="443.10">
        <route edges="gneE2 3/1to4/1 4/1to5/1 5/1to6/1"/>
    </vehicle>
    <vehicle id="212" depart="445.20">
        <route edges="gneE1 1/1to2/1 2/1to3/1 3/1to4/1"/>
    </vehicle>
    <vehicle id="213" depart="447.30">
        <route edges="gneE3 7/1to6/1 6/1to5/1 5/1to4/1 4/1to3/1"/>
    </vehicle>
    <vehicle id="214" depart="449.40">
        <route edges="gneE2 3/1to4/1 4/1to5/1"/>
    </vehicle>
    <vehicle id="215" depart="451.50">
        <route edges="gneE1 1/1to2/1 2/1to3/1 3/1to4/1"/>
    </vehicle>
    <vehicle id="216" depart="453.60">
        <route edges="gneE4 6/1to7/1 7/1to8/1 8/1to1/1"/>
    </vehicle>
    <vehicle id="217" depart="455.70">
        <route edges="gneE5 4/1to3/1 3/1to2/1 2/1to1/1"/>
    </vehicle>
    <vehicle id="218" depart="457.80">
        <route edges="gneE2 3/1to4/1 4/1to5/1 5/1to6/1 6/1to7/1"/>
    </vehicle>
    <vehicle id="219" depart="459.90">
        <route edges="gneE5 4/1to3/1 3/1to2/1 2/1to1/1 1/1to8/1 8/1to1/1"/>
    </vehicle>
    <vehicle id="220" depart="462.00">
        <route edges="gneE0 5/1to4/1 4/1to3/1 3/1to2/1 2/1to3/1"/>
    </vehicle>
    <vehicle id="221" depart="464.10">
        <route edges="gneE4 6/1to7/1 7/1to8/1"/>
    </vehicle>
    <vehicle id="222" depart="466.20">
        <route edges="gneE3 7/1to6/1 6/1to5/1 5/1to4/1 4/1to5/1"/>
    </vehicle>
    <vehicle id="223" depart="468.30">
        <route edges="gneE4 6/1to7/1 7/1to8/1 8/1to1/1 1/1to2/1"/>
    </vehicle>
    <vehicle id="224" depart="470.40">
        <route edges="gneE1 1/1to8/1 8/1to7/1 7/1to6/1 6/1to5/1"/>
    </vehicle>
    <vehicle id="225" depart="472.50">
        <route edges="gneE1 1/1to2/1 2/1to3/1 3/1to4/1 4/1to5/1 5/1to4/1"/>
    </vehicle>
    <vehicle id="226" depart="474.60">
        <route edges="gneE5 4/1to3/1 3/1to2/1 2/1to1/1 1/1to8/1 8/1to1/1"/>
    </vehicle>
    <vehicle id="227" depart="476.70">
        <route edges="gneE4 6/1to5/1 5/1to4/1"/>
    </vehicle>
    <vehicle id="228" depart="478.80">
        <route edges="gneE7 8/1to1/1 1/1to2/1"/>
    </vehicle>
    <vehicle id="229" depart="480.90">
        <route edges="gneE3 7/1to6/1 6/1to5/1 5/1to4/1 4/1to3/1"/>
    </vehicle>
    <vehicle id="230" depart="483.00">
        <route edges="gneE4 6/1to7/1 7/1to8/1 8/1to1/1"/>
    </vehicle>
    <vehicle id="231" depart="485.10">
        <route edges="gneE4 6/1to7/1 7/1to8/1 8/1to1/1 1/1to2/1"/>
    </vehicle>
    <vehicle id="232" depart="487.20">
        <route edges="gneE6 2/1to1/1 1/1to8/1 8/1to7/1 7/1to6/1"/>
    </vehicle>
    <vehicle id="233" depart="489.30">
        <route edges="gneE7 8/1to1/1 1/1to2/1"/>
    </vehicle>
    <vehicle id="234" depart="491.40">
        <route edges="gneE1 1/1to2/1 2/1to3/1 3/1to4/1 4/1to3/1"/>
    </vehicle>
    <vehicle id="235" depart="493.50">
        <route edges="gneE2 3/1to2/1 2/1to1/1"/>
    </vehicle>
    <vehicle id="236" depart="495.60">
        <route edges="gneE4 6/1to5/1 5/1to4/1 4/1to3/1"/>
    </vehicle>
    <vehicle id="237" depart="497.70">
        <route edges="gneE2 3/1to2/1 2/1to1/1 1/1to8/1 8/1to1/1"/>
    </vehicle>
    <vehicle id="238" depart="499.80">
        <route edges="gneE6 2/1to3/1 3/1to4/1 4/1to5/1 5/1to6/1 6/1to5/1"/>
    </vehicle>
    <vehicle id="239" depart="501.90">
        <route edges="gneE6 2/1to1/1 1/1to8/1 8/1to7/1 7/1to8/1"/>
    </vehicle>
    <vehicle id="240" depart="504.00">
        <route edges="gneE1 1/1to2/1 2/1to3/1 3/1to4/1 4/1to3/1"/>
    </vehicle>
    <vehicle id="241" depart="506.10">
        <route edges="gneE7 8/1to1/1 1/1to2/1 2/1to3/1 3/1to4/1 4/1to3/1"/>
    </vehicle>
    <vehicle id="242" depart="508.20">
        <route edges="gneE5 4/1to3/1 3/1to2/1 2/1to1/1 1/1to8/1 8/1to7/1"/>
    </vehicle>
    <vehicle id="243" depart="510.30">
        <route edges="gneE7 8/1to1/1 1/1to2/1 2/1to3/1 3/1to2/1"/>
    </vehicle>
    <vehicle id="244" depart="512.40">
        <route edges="gneE2 3/1to4/1 4/1to5/1 5/1to6/1"/>
    </vehicle>
    <vehicle id="245" depart="514.50">
        <route edges="gneE0 5/1to4/1 4/1to3/1 3/1to2/1 2/1to3/1"/>
    </vehicle>
    <vehicle id="246" depart="516.60">
        <route edges="gneE2 3/1to4/1 4/1to5/1 5/1to6/1 6/1to7/1 7/1to8/1"/>
    </vehicle>
    <vehicle id="247" depart="518.70">
        <route edges="gneE1 1/1to2/1 2/1to3/1 3/1to4/1 4/1to5/1"/>
    </vehicle>
    <vehicle id="248" depart="520.80">