<?xml version="1.0" encoding="UTF-8"?>

<!-- generated on Sun Nov 18 19:10:31 2018 by SUMO duarouter Version 0.32.0
<?xml version="1.0" encoding="UTF-8"?>

<configuration xmlns:xsi="http://www.w3.org/2001/XMLSchema-instance" xsi:noNamespaceSchemaLocation="http://sumo.dlr.de/xsd/duarouterConfiguration.xsd">

    <input>
        <net-file value="principal_test/principal_test.net.xml"/>
        <route-files value="trips.trips.xml"/>
    </input>

    <output>
        <output-file value="principal_test/route/principal_test-1.75-1.rou.xml"/>
        <alternatives-output value="principal_test/route/principal_test-1.75-1.rou.alt.xml"/>
    </output>

    <processing>
        <ignore-errors value="true"/>
    </processing>

    <time>
        <begin value="0.0"/>
        <end value="5400.0"/>
    </time>

    <report>
        <no-warnings value="true"/>
        <no-step-log value="true"/>
    </report>

</configuration>
-->

<routes xmlns:xsi="http://www.w3.org/2001/XMLSchema-instance" xsi:noNamespaceSchemaLocation="http://sumo.dlr.de/xsd/routes_file.xsd">
    <vehicle id="0" depart="0.00">
        <route edges="gneE10 gneE3 gneE1 gneE4 gneE2"/>
    </vehicle>
    <vehicle id="1" depart="1.75">
        <route edges="gneE0 gneE3 gneE1 gneE4 gneE2"/>
    </vehicle>
    <vehicle id="2" depart="3.50">
        <route edges="gneE0 gneE3 gneE1 gneE4 gneE2"/>
    </vehicle>
    <vehicle id="3" depart="5.25">
        <route edges="gneE4 gneE2"/>
    </vehicle>
    <vehicle id="4" depart="7.00">
        <route edges="gneE0 gneE3 gneE1 gneE4 gneE2"/>
    </vehicle>
    <vehicle id="5" depart="8.75">
        <route edges="gneE0 gneE3 gneE1"/>
    </vehicle>
    <vehicle id="6" depart="10.50">
        <route edges="gneE1 gneE4 gneE2"/>
    </vehicle>
    <vehicle id="7" depart="12.25">
        <route edges="gneE0 gneE3 gneE1 gneE4 gneE2"/>
    </vehicle>
    <vehicle id="8" depart="14.00">
        <route edges="gneE12 gneE4 gneE2"/>
    </vehicle>
    <vehicle id="9" depart="15.75">
        <route edges="gneE1 gneE4 gneE2"/>
    </vehicle>
    <vehicle id="10" depart="17.50">
        <route edges="gneE12 gneE4 gneE2"/>
    </vehicle>
    <vehicle id="11" depart="19.25">
        <route edges="gneE0 gneE3 gneE1 gneE4 gneE2"/>
    </vehicle>
    <vehicle id="12" depart="21.00">
        <route edges="gneE13 gneE2"/>
    </vehicle>
    <vehicle id="13" depart="22.75">
        <route edges="gneE4 gneE2"/>
    </vehicle>
    <vehicle id="14" depart="24.50">
        <route edges="gneE0 gneE3 gneE1 gneE4 gneE2"/>
    </vehicle>
    <vehicle id="15" depart="26.25">
        <route edges="gneE10 gneE3 gneE1 gneE4 gneE2"/>
    </vehicle>
    <vehicle id="16" depart="28.00">
        <route edges="gneE4 gneE2"/>
    </vehicle>
    <vehicle id="17" depart="29.75">
        <route edges="gneE0 gneE3 gneE1 gneE4 gneE2"/>
    </vehicle>
    <vehicle id="18" depart="31.50">
        <route edges="gneE4 gneE2"/>
    </vehicle>
    <vehicle id="19" depart="33.25">
        <route edges="gneE13 gneE2"/>
    </vehicle>
    <vehicle id="20" depart="35.00">
        <route edges="gneE3 gneE1 gneE4 gneE2"/>
    </vehicle>
    <vehicle id="21" depart="36.75">
        <route edges="gneE10 gneE3 gneE1 gneE4 gneE2"/>
    </vehicle>
    <vehicle id="22" depart="38.50">
        <route edges="gneE1 gneE4 gneE2"/>
    </vehicle>
    <vehicle id="23" depart="40.25">
        <route edges="gneE0 gneE3 gneE1 gneE4 gneE2"/>
    </vehicle>
    <vehicle id="25" depart="43.75">
        <route edges="gneE11 gneE1 gneE4 gneE2"/>
    </vehicle>
    <vehicle id="26" depart="45.50">
        <route edges="gneE0 gneE3 gneE1 gneE4 gneE2"/>
    </vehicle>
    <vehicle id="27" depart="47.25">
        <route edges="gneE12 gneE4 gneE2"/>
    </vehicle>
    <vehicle id="28" depart="49.00">
        <route edges="gneE10 gneE3 gneE1 gneE4 gneE2"/>
    </vehicle>
    <vehicle id="29" depart="50.75">
        <route edges="gneE11 gneE1 gneE4 gneE2"/>
    </vehicle>
    <vehicle id="30" depart="52.50">
        <route edges="gneE1 gneE4 gneE2"/>
    </vehicle>
    <vehicle id="31" depart="54.25">
        <route edges="gneE4 gneE2"/>
    </vehicle>
    <vehicle id="32" depart="56.00">
        <route edges="gneE11 gneE1 gneE4 gneE2"/>
    </vehicle>
    <vehicle id="33" depart="57.75">
        <route edges="gneE0 gneE3 gneE1 gneE4 gneE2"/>
    </vehicle>
    <vehicle id="34" depart="59.50">
        <route edges="gneE10 gneE3 gneE1 gneE4 gneE2"/>
    </vehicle>
    <vehicle id="35" depart="61.25">
        <route edges="gneE13 gneE2"/>
    </vehicle>
    <vehicle id="36" depart="63.00">
        <route edges="gneE0 gneE3 gneE1 gneE4 gneE2"/>
    </vehicle>
    <vehicle id="38" depart="66.50">
        <route edges="gneE0 gneE3 gneE1"/>
    </vehicle>
    <vehicle id="39" depart="68.25">
        <route edges="gneE0 gneE3 gneE1 gneE4 gneE2"/>
    </vehicle>
    <vehicle id="40" depart="70.00">
        <route edges="gneE0 gneE3 gneE1 gneE4 gneE2"/>
    </vehicle>
    <vehicle id="41" depart="71.75">
        <route edges="gneE0 gneE3"/>
    </vehicle>
    <vehicle id="42" depart="73.50">
        <route edges="gneE12 gneE4 gneE2"/>
    </vehicle>
    <vehicle id="43" depart="75.25">
        <route edges="gneE0 gneE3 gneE1"/>
    </vehicle>
    <vehicle id="44" depart="77.00">
        <route edges="gneE12 gneE4 gneE2"/>
    </vehicle>
    <vehicle id="45" depart="78.75">
        <route edges="gneE0 gneE3 gneE1 gneE4 gneE2"/>
    </vehicle>
    <vehicle id="46" depart="80.50">
        <route edges="gneE10 gneE3"/>
    </vehicle>
    <vehicle id="47" depart="82.25">
        <route edges="gneE10 gneE3 gneE1 gneE4 gneE2"/>
    </vehicle>
    <vehicle id="48" depart="84.00">
        <route edges="gneE4 gneE2"/>
    </vehicle>
    <vehicle id="49" depart="85.75">
        <route edges="gneE10 gneE3 gneE1 gneE4 gneE2"/>
    </vehicle>
    <vehicle id="50" depart="87.50">
        <route edges="gneE13 gneE2"/>
    </vehicle>
    <vehicle id="51" depart="89.25">
        <route edges="gneE0 gneE3 gneE1 gneE4 gneE2"/>
    </vehicle>
    <vehicle id="53" depart="92.75">
        <route edges="gneE0 gneE3 gneE1 gneE4 gneE2"/>
    </vehicle>
    <vehicle id="54" depart="94.50">
        <route edges="gneE3 gneE1 gneE4 gneE2"/>
    </vehicle>
    <vehicle id="55" depart="96.25">
        <route edges="gneE0 gneE3 gneE1 gneE4 gneE2"/>
    </vehicle>
    <vehicle id="56" depart="98.00">
        <route edges="gneE0 gneE3 gneE1 gneE4 gneE2"/>
    </vehicle>
    <vehicle id="57" depart="99.75">
        <route edges="gneE0 gneE3 gneE1 gneE4 gneE2"/>
    </vehicle>
    <vehicle id="58" depart="101.50">
        <route edges="gneE0 gneE3 gneE1 gneE4 gneE2"/>
    </vehicle>
    <vehicle id="59" depart="103.25">
        <route edges="gneE0 gneE3 gneE1 gneE4 gneE2"/>
    </vehicle>
    <vehicle id="60" depart="105.00">
        <route edges="gneE0 gneE3"/>
    </vehicle>
    <vehicle id="61" depart="106.75">
        <route edges="gneE10 gneE3 gneE1 gneE4 gneE2"/>
    </vehicle>
    <vehicle id="62" depart="108.50">
        <route edges="gneE13 gneE2"/>
    </vehicle>
    <vehicle id="63" depart="110.25">
        <route edges="gneE12 gneE4 gneE2"/>
    </vehicle>
    <vehicle id="64" depart="112.00">
        <route edges="gneE0 gneE3 gneE1 gneE4 gneE2"/>
    </vehicle>
    <vehicle id="65" depart="113.75">
        <route edges="gneE13 gneE2"/>
    </vehicle>
    <vehicle id="66" depart="115.50">
        <route edges="gneE0 gneE3 gneE1 gneE4 gneE2"/>
    </vehicle>
    <vehicle id="67" depart="117.25">
        <route edges="gneE0 gneE3 gneE1 gneE4 gneE2"/>
    </vehicle>
    <vehicle id="68" depart="119.00">
        <route edges="gneE3 gneE1 gneE4 gneE2"/>
    </vehicle>
    <vehicle id="69" depart="120.75">
        <route edges="gneE0 gneE3 gneE1 gneE4 gneE2"/>
    </vehicle>
    <vehicle id="70" depart="122.50">
        <route edges="gneE3 gneE1"/>
    </vehicle>
    <vehicle id="71" depart="124.25">
        <route edges="gneE10 gneE3 gneE1 gneE4 gneE2"/>
    </vehicle>
    <vehicle id="72" depart="126.00">
        <route edges="gneE0 gneE3 gneE1 gneE4"/>
    </vehicle>
    <vehicle id="73" depart="127.75">
        <route edges="gneE10 gneE3"/>
    </vehicle>
    <vehicle id="74" depart="129.50">
        <route edges="gneE0 gneE3 gneE1 gneE4 gneE2"/>
    </vehicle>
    <vehicle id="75" depart="131.25">
        <route edges="gneE10 gneE3 gneE1 gneE4 gneE2"/>
    </vehicle>
    <vehicle id="76" depart="133.00">
        <route edges="gneE3 gneE1 gneE4 gneE2"/>
    </vehicle>
    <vehicle id="77" depart="134.75">
        <route edges="gneE0 gneE3 gneE1 gneE4 gneE2"/>
    </vehicle>
    <vehicle id="78" depart="136.50">
        <route edges="gneE0 gneE3 gneE1 gneE4 gneE2"/>
    </vehicle>
    <vehicle id="79" depart="138.25">
        <route edges="gneE10 gneE3 gneE1 gneE4 gneE2"/>
    </vehicle>
    <vehicle id="80" depart="140.00">
        <route edges="gneE0 gneE3 gneE1 gneE4 gneE2"/>
    </vehicle>
    <vehicle id="81" depart="141.75">
        <route edges="gneE0 gneE3 gneE1 gneE4 gneE2"/>
    </vehicle>
    <vehicle id="82" depart="143.50">
        <route edges="gneE10 gneE3 gneE1 gneE4 gneE2"/>
    </vehicle>
    <vehicle id="83" depart="145.25">
        <route edges="gneE0 gneE3 gneE1 gneE4 gneE2"/>
    </vehicle>
    <vehicle id="84" depart="147.00">
        <route edges="gneE0 gneE3 gneE1 gneE4 gneE2"/>
    </vehicle>
    <vehicle id="85" depart="148.75">
        <route edges="gneE0 gneE3 gneE1 gneE4 gneE2"/>
    </vehicle>
    <vehicle id="86" depart="150.50">
        <route edges="gneE11 gneE1 gneE4 gneE2"/>
    </vehicle>
    <vehicle id="87" depart="152.25">
        <route edges="gneE0 gneE3 gneE1"/>
    </vehicle>
    <vehicle id="88" depart="154.00">
        <route edges="gneE10 gneE3 gneE1 gneE4 gneE2"/>
    </vehicle>
    <vehicle id="89" depart="155.75">
        <route edges="gneE0 gneE3 gneE1 gneE4 gneE2"/>
    </vehicle>
    <vehicle id="90" depart="157.50">
        <route edges="gneE11 gneE1"/>
    </vehicle>
    <vehicle id="91" depart="159.25">
        <route edges="gneE0 gneE3 gneE1 gneE4 gneE2"/>
    </vehicle>
    <vehicle id="92" depart="161.00">
        <route edges="gneE1 gneE4 gneE2"/>
    </vehicle>
    <vehicle id="93" depart="162.75">
        <route edges="gneE0 gneE3 gneE1 gneE4 gneE2"/>
    </vehicle>
    <vehicle id="94" depart="164.50">
        <route edges="gneE0 gneE3 gneE1 gneE4 gneE2"/>
    </vehicle>
    <vehicle id="95" depart="166.25">
        <route edges="gneE0 gneE3 gneE1 gneE4 gneE2"/>
    </vehicle>
    <vehicle id="96" depart="168.00">
        <route edges="gneE10 gneE3 gneE1 gneE4 gneE2"/>
    </vehicle>
    <vehicle id="97" depart="169.75">
        <route edges="gneE0 gneE3 gneE1 gneE4 gneE2"/>
    </vehicle>
    <vehicle id="98" depart="171.50">
        <route edges="gneE11 gneE1 gneE4 gneE2"/>
    </vehicle>
    <vehicle id="99" depart="173.25">
        <route edges="gneE3 gneE1 gneE4 gneE2"/>
    </vehicle>
    <vehicle id="100" depart="175.00">
        <route edges="gneE4 gneE2"/>
    </vehicle>
    <vehicle id="101" depart="176.75">
        <route edges="gneE12 gneE4 gneE2"/>
    </vehicle>
    <vehicle id="102" depart="178.50">
        <route edges="gneE0 gneE3 gneE1 gneE4 gneE2"/>
    </vehicle>
    <vehicle id="103" depart="180.25">
        <route edges="gneE13 gneE2"/>
    </vehicle>
    <vehicle id="104" depart="182.00">
        <route edges="gneE12 gneE4 gneE2"/>
    </vehicle>
    <vehicle id="105" depart="183.75">
        <route edges="gneE0 gneE3 gneE1 gneE4 gneE2"/>
    </vehicle>
    <vehicle id="106" depart="185.50">
        <route edges="gneE13 gneE2"/>
    </vehicle>
    <vehicle id="107" depart="187.25">
        <route edges="gneE0 gneE3 gneE1 gneE4 gneE2"/>
    </vehicle>
    <vehicle id="108" depart="189.00">
        <route edges="gneE10 gneE3 gneE1 gneE4 gneE2"/>
    </vehicle>
    <vehicle id="109" depart="190.75">
        <route edges="gneE0 gneE3 gneE1 gneE4 gneE2"/>
    </vehicle>
    <vehicle id="110" depart="192.50">
        <route edges="gneE4 gneE2"/>
    </vehicle>
    <vehicle id="111" depart="194.25">
        <route edges="gneE0 gneE3 gneE1 gneE4 gneE2"/>
    </vehicle>
    <vehicle id="112" depart="196.00">
        <route edges="gneE11 gneE1 gneE4 gneE2"/>
    </vehicle>
    <vehicle id="113" depart="197.75">
        <route edges="gneE10 gneE3 gneE1 gneE4 gneE2"/>
    </vehicle>
    <vehicle id="114" depart="199.50">
        <route edges="gneE10 gneE3 gneE1 gneE4 gneE2"/>
    </vehicle>
    <vehicle id="115" depart="201.25">
        <route edges="gneE10 gneE3 gneE1"/>
    </vehicle>
    <vehicle id="116" depart="203.00">
        <route edges="gneE0 gneE3 gneE1 gneE4 gneE2"/>
    </vehicle>
    <vehicle id="117" depart="204.75">
        <route edges="gneE13 gneE2"/>
    </vehicle>
    <vehicle id="118" depart="206.50">
        <route edges="gneE11 gneE1 gneE4 gneE2"/>
    </vehicle>
    <vehicle id="119" depart="208.25">
        <route edges="gneE0 gneE3 gneE1 gneE4 gneE2"/>
    </vehicle>
    <vehicle id="120" depart="210.00">
        <route edges="gneE13 gneE2"/>
    </vehicle>
    <vehicle id="121" depart="211.75">
        <route edges="gneE11 gneE1 gneE4 gneE2"/>
    </vehicle>
    <vehicle id="122" depart="213.50">
        <route edges="gneE12 gneE4 gneE2"/>
    </vehicle>
    <vehicle id="123" depart="215.25">
        <route edges="gneE12 gneE4 gneE2"/>
    </vehicle>
    <vehicle id="124" depart="217.00">
        <route edges="gneE0 gneE3 gneE1 gneE4 gneE2"/>
    </vehicle>
    <vehicle id="125" depart="218.75">
        <route edges="gneE0 gneE3 gneE1 gneE4 gneE2"/>
    </vehicle>
    <vehicle id="126" depart="220.50">
        <route edges="gneE0 gneE3 gneE1 gneE4"/>
    </vehicle>
    <vehicle id="127" depart="222.25">
        <route edges="gneE11 gneE1 gneE4 gneE2"/>
    </vehicle>
    <vehicle id="128" depart="224.00">
        <route edges="gneE0 gneE3 gneE1"/>
    </vehicle>
    <vehicle id="129" depart="225.75">
        <route edges="gneE0 gneE3 gneE1"/>
    </vehicle>
    <vehicle id="130" depart="227.50">
        <route edges="gneE1 gneE4 gneE2"/>
    </vehicle>
    <vehicle id="131" depart="229.25">
        <route edges="gneE11 gneE1 gneE4"/>
    </vehicle>
    <vehicle id="132" depart="231.00">
        <route edges="gneE0 gneE3 gneE1 gneE4 gneE2"/>
    </vehicle>
    <vehicle id="133" depart="232.75">
        <route edges="gneE0 gneE3 gneE1 gneE4 gneE2"/>
    </vehicle>
    <vehicle id="134" depart="234.50">
        <route edges="gneE0 gneE3 gneE1 gneE4 gneE2"/>
    </vehicle>
    <vehicle id="135" depart="236.25">
        <route edges="gneE0 gneE3 gneE1"/>
    </vehicle>
    <vehicle id="136" depart="238.00">
        <route edges="gneE4 gneE2"/>
    </vehicle>
    <vehicle id="137" depart="239.75">
        <route edges="gneE0 gneE3 gneE1 gneE4 gneE2"/>
    </vehicle>
    <vehicle id="138" depart="241.50">
        <route edges="gneE4"/>
    </vehicle>
    <vehicle id="139" depart="243.25">
        <route edges="gneE10 gneE3 gneE1 gneE4 gneE2"/>
    </vehicle>
    <vehicle id="140" depart="245.00">
        <route edges="gneE0 gneE3 gneE1 gneE4"/>
    </vehicle>
    <vehicle id="141" depart="246.75">
        <route edges="gneE11 gneE1 gneE4 gneE2"/>
    </vehicle>
    <vehicle id="142" depart="248.50">
        <route edges="gneE0 gneE3 gneE1"/>
    </vehicle>
    <vehicle id="143" depart="250.25">
        <route edges="gneE0 gneE3 gneE1 gneE4 gneE2"/>
    </vehicle>
    <vehicle id="144" depart="252.00">
        <route edges="gneE0 gneE3 gneE1 gneE4 gneE2"/>
    </vehicle>
    <vehicle id="145" depart="253.75">
        <route edges="gneE3 gneE1 gneE4 gneE2"/>
    </vehicle>
    <vehicle id="146" depart="255.50">
        <route edges="gneE0 gneE3 gneE1 gneE4"/>
    </vehicle>
    <vehicle id="147" depart="257.25">
        <route edges="gneE0 gneE3"/>
    </vehicle>
    <vehicle id="149" depart="260.75">
        <route edges="gneE0 gneE3 gneE1 gneE4 gneE2"/>
    </vehicle>
    <vehicle id="150" depart="262.50">
        <route edges="gneE1 gneE4 gneE2"/>
    </vehicle>
    <vehicle id="151" depart="264.25">
        <route edges="gneE0 gneE3 gneE1 gneE4 gneE2"/>
    </vehicle>
    <vehicle id="152" depart="266.00">
        <route edges="gneE0 gneE3 gneE1 gneE4 gneE2"/>
    </vehicle>
    <vehicle id="153" depart="267.75">
        <route edges="gneE0 gneE3 gneE1 gneE4 gneE2"/>
    </vehicle>
    <vehicle id="154" depart="269.50">
        <route edges="gneE0 gneE3 gneE1 gneE4 gneE2"/>
    </vehicle>
    <vehicle id="155" depart="271.25">
        <route edges="gneE0 gneE3 gneE1 gneE4 gneE2"/>
    </vehicle>
    <vehicle id="156" depart="273.00">
        <route edges="gneE0 gneE3 gneE1 gneE4 gneE2"/>
    </vehicle>
    <vehicle id="157" depart="274.75">
        <route edges="gneE0 gneE3 gneE1 gneE4 gneE2"/>
    </vehicle>
    <vehicle id="158" depart="276.50">
        <route edges="gneE13 gneE2"/>
    </vehicle>
    <vehicle id="159" depart="278.25">
        <route edges="gneE3"/>
    </vehicle>
    <vehicle id="160" depart="280.00">
        <route edges="gneE0 gneE3 gneE1 gneE4 gneE2"/>
    </vehicle>
    <vehicle id="161" depart="281.75">
        <route edges="gneE0 gneE3 gneE1 gneE4 gneE2"/>
    </vehicle>
    <vehicle id="162" depart="283.50">
        <route edges="gneE0 gneE3"/>
    </vehicle>
    <vehicle id="163" depart="285.25">
        <route edges="gneE10 gneE3 gneE1 gneE4 gneE2"/>
    </vehicle>
    <vehicle id="164" depart="287.00">
        <route edges="gneE0 gneE3 gneE1"/>
    </vehicle>
    <vehicle id="165" depart="288.75">
        <route edges="gneE1 gneE4 gneE2"/>
    </vehicle>
    <vehicle id="166" depart="290.50">
        <route edges="gneE0 gneE3 gneE1 gneE4 gneE2"/>
    </vehicle>
    <vehicle id="167" depart="292.25">
        <route edges="gneE13 gneE2"/>
    </vehicle>
    <vehicle id="168" depart="294.00">
        <route edges="gneE0 gneE3 gneE1 gneE4 gneE2"/>
    </vehicle>
    <vehicle id="169" depart="295.75">
        <route edges="gneE4 gneE2"/>
    </vehicle>
    <vehicle id="170" depart="297.50">
        <route edges="gneE13 gneE2"/>
    </vehicle>
    <vehicle id="171" depart="299.25">
        <route edges="gneE11 gneE1 gneE4 gneE2"/>
    </vehicle>
    <vehicle id="172" depart="301.00">
        <route edges="gneE0 gneE3 gneE1 gneE4 gneE2"/>
    </vehicle>
    <vehicle id="173" depart="302.75">
        <route edges="gneE0 gneE3 gneE1 gneE4 gneE2"/>
    </vehicle>
    <vehicle id="174" depart="304.50">
        <route edges="gneE0 gneE3 gneE1 gneE4 gneE2"/>
    </vehicle>
    <vehicle id="175" depart="306.25">
        <route edges="gneE13 gneE2"/>
    </vehicle>
    <vehicle id="176" depart="308.00">
        <route edges="gneE0 gneE3 gneE1 gneE4 gneE2"/>
    </vehicle>
    <vehicle id="177" depart="309.75">
        <route edges="gneE0 gneE3 gneE1 gneE4 gneE2"/>
    </vehicle>
    <vehicle id="178" depart="311.50">
        <route edges="gneE12 gneE4 gneE2"/>
    </vehicle>
    <vehicle id="179" depart="313.25">
        <route edges="gneE10 gneE3 gneE1 gneE4 gneE2"/>
    </vehicle>
    <vehicle id="180" depart="315.00">
        <route edges="gneE12 gneE4 gneE2"/>
    </vehicle>
    <vehicle id="181" depart="316.75">
        <route edges="gneE0 gneE3"/>
    </vehicle>
    <vehicle id="182" depart="318.50">
        <route edges="gneE0 gneE3 gneE1 gneE4 gneE2"/>
    </vehicle>
    <vehicle id="184" depart="322.00">
        <route edges="gneE3 gneE1 gneE4 gneE2"/>
    </vehicle>
    <vehicle id="185" depart="323.75">
        <route edges="gneE0 gneE3 gneE1 gneE4 gneE2"/>
    </vehicle>
    <vehicle id="186" depart="325.50">
        <route edges="gneE10 gneE3 gneE1 gneE4 gneE2"/>
    </vehicle>
    <vehicle id="187" depart="327.25">
        <route edges="gneE0 gneE3 gneE1"/>
    </vehicle>
    <vehicle id="188" depart="329.00">
        <route edges="gneE3 gneE1 gneE4 gneE2"/>
    </vehicle>
    <vehicle id="189" depart="330.75">
        <route edges="gneE0 gneE3 gneE1 gneE4 gneE2"/>
    </vehicle>
    <vehicle id="190" depart="332.50">
        <route edges="gneE0 gneE3 gneE1 gneE4 gneE2"/>
    </vehicle>
    <vehicle id="191" depart="334.25">
        <route edges="gneE0 gneE3 gneE1 gneE4 gneE2"/>
    </vehicle>
    <vehicle id="192" depart="336.00">
        <route edges="gneE0 gneE3 gneE1 gneE4 gneE2"/>
    </vehicle>
    <vehicle id="193" depart="337.75">
        <route edges="gneE11 gneE1"/>
    </vehicle>
    <vehicle id="194" depart="339.50">
        <route edges="gneE12 gneE4 gneE2"/>
    </vehicle>
    <vehicle id="195" depart="341.25">
        <route edges="gneE0 gneE3 gneE1 gneE4 gneE2"/>
    </vehicle>
    <vehicle id="196" depart="343.00">
        <route edges="gneE0 gneE3 gneE1 gneE4"/>
    </vehicle>
    <vehicle id="197" depart="344.75">
        <route edges="gneE13 gneE2"/>
    </vehicle>
    <vehicle id="198" depart="346.50">
        <route edges="gneE3 gneE1 gneE4 gneE2"/>
    </vehicle>
    <vehicle id="199" depart="348.25">
        <route edges="gneE11 gneE1 gneE4 gneE2"/>
    </vehicle>
    <vehicle id="200" depart="350.00">
        <route edges="gneE11 gneE1 gneE4 gneE2"/>
    </vehicle>
    <vehicle id="201" depart="351.75">
        <route edges="gneE3 gneE1 gneE4 gneE2"/>
    </vehicle>
    <vehicle id="202" depart="353.50">
        <route edges="gneE0 gneE3 gneE1 gneE4 gneE2"/>
    </vehicle>
    <vehicle id="203" depart="355.25">
        <route edges="gneE12 gneE4 gneE2"/>
    </vehicle>
    <vehicle id="204" depart="357.00">
        <route edges="gneE0 gneE3"/>
    </vehicle>
    <vehicle id="205" depart="358.75">
        <route edges="gneE3 gneE1 gneE4 gneE2"/>
    </vehicle>
    <vehicle id="206" depart="360.50">
        <route edges="gneE4 gneE2"/>
    </vehicle>
    <vehicle id="208" depart="364.00">
        <route edges="gneE0 gneE3 gneE1 gneE4 gneE2"/>
    </vehicle>
    <vehicle id="209" depart="365.75">
        <route edges="gneE11 gneE1 gneE4 gneE2"/>
    </vehicle>
    <vehicle id="210" depart="367.50">
        <route edges="gneE0 gneE3 gneE1 gneE4 gneE2"/>
    </vehicle>
    <vehicle id="211" depart="369.25">
        <route edges="gneE0 gneE3 gneE1 gneE4 gneE2"/>
    </vehicle>
    <vehicle id="212" depart="371.00">
        <route edges="gneE0 gneE3 gneE1 gneE4 gneE2"/>
    </vehicle>
    <vehicle id="213" depart="372.75">
        <route edges="gneE11 gneE1 gneE4 gneE2"/>
    </vehicle>
    <vehicle id="214" depart="374.50">
        <route edges="gneE11 gneE1 gneE4 gneE2"/>
    </vehicle>
    <vehicle id="215" depart="376.25">
        <route edges="gneE11 gneE1 gneE4 gneE2"/>
    </vehicle>
    <vehicle id="216" depart="378.00">
        <route edges="gneE11 gneE1 gneE4 gneE2"/>
    </vehicle>
    <vehicle id="217" depart="379.75">
        <route edges="gneE10 gneE3 gneE1 gneE4 gneE2"/>
    </vehicle>
    <vehicle id="218" depart="381.50">
        <route edges="gneE12 gneE4 gneE2"/>
    </vehicle>
    <vehicle id="219" depart="383.25">
        <route edges="gneE11 gneE1 gneE4 gneE2"/>
    </vehicle>
    <vehicle id="220" depart="385.00">
        <route edges="gneE10 gneE3 gneE1 gneE4 gneE2"/>
    </vehicle>
    <vehicle id="221" depart="386.75">
        <route edges="gneE3 gneE1 gneE4 gneE2"/>
    </vehicle>
    <vehicle id="222" depart="388.50">
        <route edges="gneE11 gneE1 gneE4 gneE2"/>
    </vehicle>
    <vehicle id="223" depart="390.25">
        <route edges="gneE0 gneE3 gneE1 gneE4 gneE2"/>
    </vehicle>
    <vehicle id="224" depart="392.00">
        <route edges="gneE12 gneE4 gneE2"/>
    </vehicle>
    <vehicle id="225" depart="393.75">
        <route edges="gneE0 gneE3 gneE1 gneE4 gneE2"/>
    </vehicle>
    <vehicle id="226" depart="395.50">
        <route edges="gneE11 gneE1 gneE4 gneE2"/>
    </vehicle>
    <vehicle id="227" depart="397.25">
        <route edges="gneE3 gneE1 gneE4 gneE2"/>
    </vehicle>
    <vehicle id="228" depart="399.00">
        <route edges="gneE0 gneE3 gneE1 gneE4 gneE2"/>
    </vehicle>
    <vehicle id="229" depart="400.75">
        <route edges="gneE10 gneE3 gneE1 gneE4 gneE2"/>
    </vehicle>
    <vehicle id="230" depart="402.50">
        <route edges="gneE4 gneE2"/>
    </vehicle>
    <vehicle id="231" depart="404.25">
        <route edges="gneE12 gneE4 gneE2"/>
    </vehicle>
    <vehicle id="232" depart="406.00">
        <route edges="gneE10 gneE3 gneE1 gneE4 gneE2"/>
    </vehicle>
    <vehicle id="233" depart="407.75">
        <route edges="gneE0 gneE3 gneE1"/>
    </vehicle>
    <vehicle id="234" depart="409.50">
        <route edges="gneE0 gneE3 gneE1 gneE4 gneE2"/>
    </vehicle>
    <vehicle id="235" depart="411.25">
        <route edges="gneE10 gneE3 gneE1 gneE4 gneE2"/>
    </vehicle>
    <vehicle id="236" depart="413.00">
        <route edges="gneE0 gneE3 gneE1 gneE4 gneE2"/>
    </vehicle>
    <vehicle id="237" depart="414.75">
        <route edges="gneE0 gneE3 gneE1 gneE4 gneE2"/>
    </vehicle>
    <vehicle id="238" depart="416.50">
        <route edges="gneE4 gneE2"/>
    </vehicle>
    <vehicle id="239" depart="418.25">
        <route edges="gneE0 gneE3 gneE1 gneE4 gneE2"/>
    </vehicle>
    <vehicle id="240" depart="420.00">
        <route edges="gneE11 gneE1 gneE4 gneE2"/>
    </vehicle>
    <vehicle id="241" depart="421.75">
        <route edges="gneE13 gneE2"/>
    </vehicle>
    <vehicle id="243" depart="425.25">
        <route edges="gneE13 gneE2"/>
    </vehicle>
    <vehicle id="244" depart="427.00">
        <route edges="gneE0 gneE3 gneE1 gneE4 gneE2"/>
    </vehicle>
    <vehicle id="245" depart="428.75">
        <route edges="gneE3 gneE1 gneE4 gneE2"/>
    </vehicle>
    <vehicle id="246" depart="430.50">
        <route edges="gneE0 gneE3 gneE1 gneE4 gneE2"/>
    </vehicle>
    <vehicle id="247" depart="432.25">
        <route edges="gneE4 gneE2"/>
    </vehicle>
    <vehicle id="248" depart="434.00">
        <route edges="gneE0 gneE3 gneE1 gneE4 gneE2"/>
    </vehicle>
    <vehicle id="249" depart="435.75">
        <route edges="gneE13 gneE2"/>
    </vehicle>
    <vehicle id="250" depart="437.50">
        <route edges="gneE4"/>
    </vehicle>
    <vehicle id="251" depart="439.25">
        <route edges="gneE0 gneE3 gneE1 gneE4 gneE2"/>
    </vehicle>
    <vehicle id="252" depart="441.00">
        <route edges="gneE11 gneE1 gneE4 gneE2"/>
    </vehicle>
    <vehicle id="253" depart="442.75">
        <route edges="gneE4 gneE2"/>
    </vehicle>
    <vehicle id="255" depart="446.25">
        <route edges="gneE0 gneE3 gneE1 gneE4 gneE2"/>
    </vehicle>
    <vehicle id="256" depart="448.00">
        <route edges="gneE0 gneE3 gneE1 gneE4 gneE2"/>
    </vehicle>
    <vehicle id="257" depart="449.75">
        <route edges="gneE11 gneE1 gneE4 gneE2"/>
    </vehicle>
    <vehicle id="258" depart="451.50">
        <route edges="gneE4 gneE2"/>
    </vehicle>
    <vehicle id="259" depart="453.25">
        <route edges="gneE0 gneE3 gneE1 gneE4 gneE2"/>
    </vehicle>
    <vehicle id="260" depart="455.00">
        <route edges="gneE4 gneE2"/>
    </vehicle>
    <vehicle id="261" depart="456.75">
        <route edges="gneE1 gneE4"/>
    </vehicle>
    <vehicle id="262" depart="458.50">
        <route edges="gneE0 gneE3 gneE1 gneE4 gneE2"/>
    </vehicle>
    <vehicle id="263" depart="460.25">
        <route edges="gneE12 gneE4 gneE2"/>
    </vehicle>
    <vehicle id="264" depart="462.00">
        <route edges="gneE12 gneE4 gneE2"/>
    </vehicle>
    <vehicle id="265" depart="463.75">
        <route edges="gneE13 gneE2"/>
    </vehicle>
    <vehicle id="266" depart="465.50">
        <route edges="gneE10 gneE3 gneE1 gneE4 gneE2"/>
    </vehicle>
    <vehicle id="267" depart="467.25">
        <route edges="gneE0 gneE3 gneE1 gneE4 gneE2"/>
    </vehicle>
    <vehicle id="268" depart="469.00">
        <route edges="gneE0 gneE3 gneE1 gneE4 gneE2"/>
    </vehicle>
    <vehicle id="269" depart="470.75">
        <route edges="gneE10 gneE3"/>
    </vehicle>
    <vehicle id="270" depart="472.50">
        <route edges="gneE0 gneE3 gneE1 gneE4 gneE2"/>
    </vehicle>
    <vehicle id="271" depart="474.25">
        <route edges="gneE0 gneE3 gneE1 gneE4 gneE2"/>
    </vehicle>
    <vehicle id="272" depart="476.00">
        <route edges="gneE0 gneE3 gneE1"/>
    </vehicle>
    <vehicle id="273" depart="477.75">
        <route edges="gneE0 gneE3 gneE1 gneE4 gneE2"/>
    </vehicle>
    <vehicle id="274" depart="479.50">
        <route edges="gneE4 gneE2"/>
    </vehicle>
    <vehicle id="275" depart="481.25">
        <route edges="gneE0 gneE3 gneE1 gneE4"/>
    </vehicle>
    <vehicle id="276" depart="483.00">
        <route edges="gneE11 gneE1 gneE4 gneE2"/>
    </vehicle>
    <vehicle id="277" depart="484.75">
        <route edges="gneE0 gneE3 gneE1"/>
    </vehicle>
    <vehicle id="278" depart="486.50">
        <route edges="gneE13 gneE2"/>
    </vehicle>
    <vehicle id="279" depart="488.25">
        <route edges="gneE0 gneE3 gneE1 gneE4 gneE2"/>
    </vehicle>
    <vehicle id="280" depart="490.00">
        <route edges="gneE0 gneE3 gneE1 gneE4"/>
    </vehicle>
    <vehicle id="281" depart="491.75">
        <route edges="gneE0 gneE3 gneE1 gneE4 gneE2"/>
    </vehicle>
    <vehicle id="282" depart="493.50">
        <route edges="gneE10 gneE3 gneE1 gneE4 gneE2"/>
    </vehicle>
    <vehicle id="283" depart="495.25">
        <route edges="gneE13 gneE2"/>
    </vehicle>
    <vehicle id="284" depart="497.00">
        <route edges="gneE4 gneE2"/>
    </vehicle>
    <vehicle id="285" depart="498.75">
        <route edges="gneE0 gneE3 gneE1"/>
    </vehicle>
    <vehicle id="286" depart="500.50">
        <route edges="gneE12 gneE4 gneE2"/>
    </vehicle>
    <vehicle id="287" depart="502.25">
        <route edges="gneE0 gneE3 gneE1 gneE4 gneE2"/>
    </vehicle>
    <vehicle id="288" depart="504.00">
        <route edges="gneE0 gneE3 gneE1 gneE4 gneE2"/>
    </vehicle>
    <vehicle id="289" depart="505.75">
        <route edges="gneE0 gneE3 gneE1 gneE4 gneE2"/>
    </vehicle>
    <vehicle id="290" depart="507.50">
        <route edges="gneE0 gneE3 gneE1 gneE4 gneE2"/>