<?xml version="1.0" encoding="UTF-8"?>

<!-- generated on Sun May  6 20:53:48 2018 by SUMO duarouter Version 0.30.0
<?xml version="1.0" encoding="UTF-8"?>

<configuration xmlns:xsi="http://www.w3.org/2001/XMLSchema-instance" xsi:noNamespaceSchemaLocation="http://sumo.dlr.de/xsd/duarouterConfiguration.xsd">

    <input>
        <net-file value="principal/principal.net.xml"/>
        <route-files value="trips.trips.xml"/>
    </input>

    <output>
        <output-file value="principal/route/principal-2.4-1.rou.xml"/>
    </output>

    <processing>
        <ignore-errors value="true"/>
    </processing>

    <time>
        <begin value="0.0"/>
        <end value="1000.0"/>
    </time>

    <report>
        <no-warnings value="true"/>
        <no-step-log value="true"/>
    </report>

</configuration>
-->

<routes xmlns:xsi="http://www.w3.org/2001/XMLSchema-instance" xsi:noNamespaceSchemaLocation="http://sumo.dlr.de/xsd/routes_file.xsd">
    <vehicle id="0" depart="0.00">
        <route edges="gneE12 gneE4 gneE2"/>
    </vehicle>
    <vehicle id="1" depart="2.40">
        <route edges="gneE12 gneE4 gneE2"/>
    </vehicle>
    <vehicle id="2" depart="4.80">
        <route edges="gneE10 gneE3 gneE1 gneE4 gneE2"/>
    </vehicle>
    <vehicle id="3" depart="7.20">
        <route edges="gneE10 gneE3 gneE1 gneE4"/>
    </vehicle>
    <vehicle id="4" depart="9.60">
        <route edges="gneE10 gneE3 gneE1 gneE4 gneE2"/>
    </vehicle>
    <vehicle id="6" depart="14.40">
        <route edges="gneE0 gneE3 gneE1 gneE4 gneE2"/>
    </vehicle>
    <vehicle id="7" depart="16.80">
        <route edges="gneE13 gneE2"/>
    </vehicle>
    <vehicle id="8" depart="19.20">
        <route edges="gneE0 gneE3 gneE1"/>
    </vehicle>
    <vehicle id="9" depart="21.60">
        <route edges="gneE11 gneE1 gneE4 gneE2"/>
    </vehicle>
    <vehicle id="10" depart="24.00">
        <route edges="gneE10 gneE3"/>
    </vehicle>
    <vehicle id="11" depart="26.40">
        <route edges="gneE13 gneE2"/>
    </vehicle>
    <vehicle id="12" depart="28.80">
        <route edges="gneE13 gneE2"/>
    </vehicle>
    <vehicle id="13" depart="31.20">
        <route edges="gneE0 gneE3 gneE1 gneE4 gneE2"/>
    </vehicle>
    <vehicle id="14" depart="33.60">
        <route edges="gneE13 gneE2"/>
    </vehicle>
    <vehicle id="15" depart="36.00">
        <route edges="gneE11 gneE1 gneE4 gneE2"/>
    </vehicle>
    <vehicle id="16" depart="38.40">
        <route edges="gneE12 gneE4 gneE2"/>
    </vehicle>
    <vehicle id="17" depart="40.80">
        <route edges="gneE10 gneE3 gneE1 gneE4 gneE2"/>
    </vehicle>
    <vehicle id="18" depart="43.20">
        <route edges="gneE13 gneE2"/>
    </vehicle>
    <vehicle id="20" depart="48.00">
        <route edges="gneE0 gneE3 gneE1 gneE4"/>
    </vehicle>
    <vehicle id="21" depart="50.40">
        <route edges="gneE10 gneE3 gneE1 gneE4 gneE2"/>
    </vehicle>
    <vehicle id="22" depart="52.80">
        <route edges="gneE12 gneE4 gneE2"/>
    </vehicle>
    <vehicle id="23" depart="55.20">
        <route edges="gneE11 gneE1 gneE4 gneE2"/>
    </vehicle>
    <vehicle id="24" depart="57.60">
        <route edges="gneE0 gneE3 gneE1 gneE4 gneE2"/>
    </vehicle>
    <vehicle id="25" depart="60.00">
        <route edges="gneE0 gneE3 gneE1 gneE4 gneE2"/>
    </vehicle>
    <vehicle id="26" depart="62.40">
        <route edges="gneE10 gneE3 gneE1 gneE4 gneE2"/>
    </vehicle>
    <vehicle id="27" depart="64.80">
        <route edges="gneE13 gneE2"/>
    </vehicle>
    <vehicle id="28" depart="67.20">
        <route edges="gneE3 gneE1 gneE4"/>
    </vehicle>
    <vehicle id="29" depart="69.60">
        <route edges="gneE1 gneE4"/>
    </vehicle>
    <vehicle id="30" depart="72.00">
        <route edges="gneE3 gneE1 gneE4"/>
    </vehicle>
    <vehicle id="31" depart="74.40">
        <route edges="gneE1 gneE4 gneE2"/>
    </vehicle>
    <vehicle id="32" depart="76.80">
        <route edges="gneE11 gneE1 gneE4 gneE2"/>
    </vehicle>
    <vehicle id="33" depart="79.20">
        <route edges="gneE13 gneE2"/>
    </vehicle>
    <vehicle id="35" depart="84.00">
        <route edges="gneE0 gneE3 gneE1 gneE4 gneE2"/>
    </vehicle>
    <vehicle id="36" depart="86.40">
        <route edges="gneE13 gneE2"/>
    </vehicle>
    <vehicle id="37" depart="88.80">
        <route edges="gneE11 gneE1 gneE4 gneE2"/>
    </vehicle>
    <vehicle id="38" depart="91.20">
        <route edges="gneE11 gneE1 gneE4 gneE2"/>
    </vehicle>
    <vehicle id="39" depart="93.60">
        <route edges="gneE12 gneE4 gneE2"/>
    </vehicle>
    <vehicle id="40" depart="96.00">
        <route edges="gneE12 gneE4 gneE2"/>
    </vehicle>
    <vehicle id="41" depart="98.40">
        <route edges="gneE11 gneE1 gneE4 gneE2"/>
    </vehicle>
    <vehicle id="42" depart="100.80">
        <route edges="gneE11 gneE1 gneE4 gneE2"/>
    </vehicle>
    <vehicle id="43" depart="103.20">
        <route edges="gneE11 gneE1 gneE4 gneE2"/>
    </vehicle>
    <vehicle id="44" depart="105.60">
        <route edges="gneE13 gneE2"/>
    </vehicle>
    <vehicle id="45" depart="108.00">
        <route edges="gneE11 gneE1 gneE4 gneE2"/>
    </vehicle>
    <vehicle id="46" depart="110.40">
        <route edges="gneE10 gneE3 gneE1 gneE4 gneE2"/>
    </vehicle>
    <vehicle id="47" depart="112.80">
        <route edges="gneE10 gneE3"/>
    </vehicle>
    <vehicle id="48" depart="115.20">
        <route edges="gneE11 gneE1 gneE4"/>
    </vehicle>
    <vehicle id="49" depart="117.60">
        <route edges="gneE0 gneE3 gneE1 gneE4 gneE2"/>
    </vehicle>
    <vehicle id="50" depart="120.00">
        <route edges="gneE10 gneE3 gneE1 gneE4"/>
    </vehicle>
    <vehicle id="51" depart="122.40">
        <route edges="gneE13 gneE2"/>
    </vehicle>
    <vehicle id="52" depart="124.80">
        <route edges="gneE11 gneE1 gneE4 gneE2"/>
    </vehicle>
    <vehicle id="53" depart="127.20">
        <route edges="gneE0 gneE3 gneE1 gneE4 gneE2"/>
    </vehicle>
    <vehicle id="54" depart="129.60">
        <route edges="gneE0 gneE3 gneE1 gneE4 gneE2"/>
    </vehicle>
    <vehicle id="55" depart="132.00">
        <route edges="gneE10 gneE3 gneE1 gneE4"/>
    </vehicle>
    <vehicle id="56" depart="134.40">
        <route edges="gneE11 gneE1 gneE4 gneE2"/>
    </vehicle>
    <vehicle id="57" depart="136.80">
        <route edges="gneE11 gneE1 gneE4 gneE2"/>
    </vehicle>
    <vehicle id="58" depart="139.20">
        <route edges="gneE4 gneE2"/>
    </vehicle>
    <vehicle id="59" depart="141.60">
        <route edges="gneE10 gneE3 gneE1 gneE4 gneE2"/>
    </vehicle>
    <vehicle id="60" depart="144.00">
        <route edges="gneE0 gneE3 gneE1 gneE4 gneE2"/>
    </vehicle>
    <vehicle id="61" depart="146.40">
        <route edges="gneE13 gneE2"/>
    </vehicle>
    <vehicle id="62" depart="148.80">
        <route edges="gneE10 gneE3 gneE1 gneE4 gneE2"/>
    </vehicle>
    <vehicle id="63" depart="151.20">
        <route edges="gneE10 gneE3 gneE1 gneE4 gneE2"/>
    </vehicle>
    <vehicle id="64" depart="153.60">
        <route edges="gneE11 gneE1 gneE4 gneE2"/>
    </vehicle>
    <vehicle id="65" depart="156.00">
        <route edges="gneE11 gneE1 gneE4 gneE2"/>
    </vehicle>
    <vehicle id="66" depart="158.40">
        <route edges="gneE0 gneE3 gneE1 gneE4 gneE2"/>
    </vehicle>
    <vehicle id="67" depart="160.80">
        <route edges="gneE11 gneE1 gneE4 gneE2"/>
    </vehicle>
    <vehicle id="68" depart="163.20">
        <route edges="gneE0 gneE3 gneE1 gneE4 gneE2"/>
    </vehicle>
    <vehicle id="69" depart="165.60">
        <route edges="gneE10 gneE3 gneE1 gneE4 gneE2"/>
    </vehicle>
    <vehicle id="70" depart="168.00">
        <route edges="gneE0 gneE3 gneE1"/>
    </vehicle>
    <vehicle id="71" depart="170.40">
        <route edges="gneE11 gneE1 gneE4 gneE2"/>
    </vehicle>
    <vehicle id="72" depart="172.80">
        <route edges="gneE0 gneE3 gneE1 gneE4 gneE2"/>
    </vehicle>
    <vehicle id="73" depart="175.20">
        <route edges="gneE11 gneE1 gneE4 gneE2"/>
    </vehicle>
    <vehicle id="74" depart="177.60">
        <route edges="gneE10 gneE3 gneE1 gneE4 gneE2"/>
    </vehicle>
    <vehicle id="75" depart="180.00">
        <route edges="gneE10 gneE3 gneE1 gneE4 gneE2"/>
    </vehicle>
    <vehicle id="76" depart="182.40">
        <route edges="gneE11 gneE1 gneE4 gneE2"/>
    </vehicle>
    <vehicle id="78" depart="187.20">
        <route edges="gneE12 gneE4 gneE2"/>
    </vehicle>
    <vehicle id="79" depart="189.60">
        <route edges="gneE0 gneE3 gneE1 gneE4 gneE2"/>
    </vehicle>
    <vehicle id="80" depart="192.00">
        <route edges="gneE0 gneE3"/>
    </vehicle>
    <vehicle id="81" depart="194.40">
        <route edges="gneE12 gneE4 gneE2"/>
    </vehicle>
    <vehicle id="83" depart="199.20">
        <route edges="gneE11 gneE1 gneE4 gneE2"/>
    </vehicle>
    <vehicle id="85" depart="204.00">
        <route edges="gneE0 gneE3 gneE1 gneE4 gneE2"/>
    </vehicle>
    <vehicle id="86" depart="206.40">
        <route edges="gneE11 gneE1 gneE4 gneE2"/>
    </vehicle>
    <vehicle id="87" depart="208.80">
        <route edges="gneE0 gneE3 gneE1 gneE4 gneE2"/>
    </vehicle>
    <vehicle id="88" depart="211.20">
        <route edges="gneE11 gneE1 gneE4"/>
    </vehicle>
    <vehicle id="89" depart="213.60">
        <route edges="gneE10 gneE3 gneE1 gneE4 gneE2"/>
    </vehicle>
    <vehicle id="90" depart="216.00">
        <route edges="gneE11 gneE1 gneE4 gneE2"/>
    </vehicle>
    <vehicle id="91" depart="218.40">
        <route edges="gneE11 gneE1 gneE4 gneE2"/>
    </vehicle>
    <vehicle id="92" depart="220.80">
        <route edges="gneE0 gneE3 gneE1"/>
    </vehicle>
    <vehicle id="93" depart="223.20">
        <route edges="gneE11 gneE1 gneE4 gneE2"/>
    </vehicle>
    <vehicle id="94" depart="225.60">
        <route edges="gneE10 gneE3 gneE1 gneE4"/>
    </vehicle>
    <vehicle id="95" depart="228.00">
        <route edges="gneE0 gneE3 gneE1 gneE4"/>
    </vehicle>
    <vehicle id="96" depart="230.40">
        <route edges="gneE11 gneE1 gneE4 gneE2"/>
    </vehicle>
    <vehicle id="97" depart="232.80">
        <route edges="gneE10 gneE3 gneE1 gneE4 gneE2"/>
    </vehicle>
    <vehicle id="98" depart="235.20">
        <route edges="gneE12 gneE4"/>
    </vehicle>
    <vehicle id="99" depart="237.60">
        <route edges="gneE0 gneE3 gneE1 gneE4 gneE2"/>
    </vehicle>
    <vehicle id="100" depart="240.00">
        <route edges="gneE12 gneE4 gneE2"/>
    </vehicle>
    <vehicle id="101" depart="242.40">
        <route edges="gneE11 gneE1 gneE4 gneE2"/>
    </vehicle>
    <vehicle id="102" depart="244.80">
        <route edges="gneE11 gneE1 gneE4 gneE2"/>
    </vehicle>
    <vehicle id="103" depart="247.20">
        <route edges="gneE0 gneE3"/>
    </vehicle>
    <vehicle id="104" depart="249.60">
        <route edges="gneE11 gneE1 gneE4 gneE2"/>
    </vehicle>
    <vehicle id="105" depart="252.00">
        <route edges="gneE13 gneE2"/>
    </vehicle>
    <vehicle id="106" depart="254.40">
        <route edges="gneE0 gneE3 gneE1 gneE4 gneE2"/>
    </vehicle>
    <vehicle id="107" depart="256.80">
        <route edges="gneE0 gneE3 gneE1 gneE4 gneE2"/>
    </vehicle>
    <vehicle id="108" depart="259.20">
        <route edges="gneE13 gneE2"/>
    </vehicle>
    <vehicle id="109" depart="261.60">
        <route edges="gneE10 gneE3 gneE1 gneE4 gneE2"/>
    </vehicle>
    <vehicle id="110" depart="264.00">
        <route edges="gneE0 gneE3 gneE1 gneE4 gneE2"/>
    </vehicle>
    <vehicle id="111" depart="266.40">
        <route edges="gneE12 gneE4 gneE2"/>
    </vehicle>
    <vehicle id="112" depart="268.80">
        <route edges="gneE13 gneE2"/>
    </vehicle>
    <vehicle id="114" depart="273.60">
        <route edges="gneE12 gneE4 gneE2"/>
    </vehicle>
    <vehicle id="115" depart="276.00">
        <route edges="gneE11 gneE1 gneE4"/>
    </vehicle>
    <vehicle id="116" depart="278.40">
        <route edges="gneE10 gneE3 gneE1 gneE4 gneE2"/>
    </vehicle>
    <vehicle id="117" depart="280.80">
        <route edges="gneE10 gneE3 gneE1 gneE4 gneE2"/>
    </vehicle>
    <vehicle id="118" depart="283.20">
        <route edges="gneE10 gneE3 gneE1"/>
    </vehicle>
    <vehicle id="119" depart="285.60">
        <route edges="gneE13 gneE2"/>
    </vehicle>
    <vehicle id="120" depart="288.00">
        <route edges="gneE11 gneE1 gneE4 gneE2"/>
    </vehicle>
    <vehicle id="121" depart="290.40">
        <route edges="gneE11 gneE1"/>
    </vehicle>
    <vehicle id="122" depart="292.80">
        <route edges="gneE1 gneE4 gneE2"/>
    </vehicle>
    <vehicle id="123" depart="295.20">
        <route edges="gneE11 gneE1 gneE4 gneE2"/>
    </vehicle>
    <vehicle id="124" depart="297.60">
        <route edges="gneE13 gneE2"/>
    </vehicle>
    <vehicle id="125" depart="300.00">
        <route edges="gneE12 gneE4 gneE2"/>
    </vehicle>
    <vehicle id="126" depart="302.40">
        <route edges="gneE0 gneE3 gneE1 gneE4 gneE2"/>
    </vehicle>
    <vehicle id="127" depart="304.80">
        <route edges="gneE0 gneE3 gneE1 gneE4 gneE2"/>
    </vehicle>
    <vehicle id="128" depart="307.20">
        <route edges="gneE10 gneE3 gneE1 gneE4 gneE2"/>
    </vehicle>
    <vehicle id="129" depart="309.60">
        <route edges="gneE3 gneE1 gneE4 gneE2"/>
    </vehicle>
    <vehicle id="130" depart="312.00">
        <route edges="gneE0 gneE3 gneE1 gneE4"/>
    </vehicle>
    <vehicle id="131" depart="314.40">
        <route edges="gneE10 gneE3"/>
    </vehicle>
    <vehicle id="132" depart="316.80">
        <route edges="gneE12 gneE4 gneE2"/>
    </vehicle>
    <vehicle id="133" depart="319.20">
        <route edges="gneE13 gneE2"/>
    </vehicle>
    <vehicle id="134" depart="321.60">
        <route edges="gneE12 gneE4 gneE2"/>
    </vehicle>
    <vehicle id="135" depart="324.00">
        <route edges="gneE13 gneE2"/>
    </vehicle>
    <vehicle id="136" depart="326.40">
        <route edges="gneE0 gneE3 gneE1 gneE4 gneE2"/>
    </vehicle>
    <vehicle id="137" depart="328.80">
        <route edges="gneE13 gneE2"/>
    </vehicle>
    <vehicle id="138" depart="331.20">
        <route edges="gneE0 gneE3 gneE1 gneE4 gneE2"/>
    </vehicle>
    <vehicle id="139" depart="333.60">
        <route edges="gneE11 gneE1 gneE4 gneE2"/>
    </vehicle>
    <vehicle id="140" depart="336.00">
        <route edges="gneE11 gneE1 gneE4"/>
    </vehicle>
    <vehicle id="141" depart="338.40">
        <route edges="gneE0 gneE3 gneE1 gneE4 gneE2"/>
    </vehicle>
    <vehicle id="142" depart="340.80">
        <route edges="gneE0 gneE3 gneE1"/>
    </vehicle>
    <vehicle id="143" depart="343.20">
        <route edges="gneE0 gneE3 gneE1 gneE4 gneE2"/>
    </vehicle>
    <vehicle id="144" depart="345.60">
        <route edges="gneE0 gneE3 gneE1 gneE4 gneE2"/>
    </vehicle>
    <vehicle id="145" depart="348.00">
        <route edges="gneE10 gneE3 gneE1 gneE4 gneE2"/>
    </vehicle>
    <vehicle id="146" depart="350.40">
        <route edges="gneE12 gneE4 gneE2"/>
    </vehicle>
    <vehicle id="147" depart="352.80">
        <route edges="gneE1 gneE4 gneE2"/>
    </vehicle>
    <vehicle id="148" depart="355.20">
        <route edges="gneE10 gneE3 gneE1 gneE4 gneE2"/>
    </vehicle>
    <vehicle id="149" depart="357.60">
        <route edges="gneE0 gneE3 gneE1 gneE4 gneE2"/>
    </vehicle>
    <vehicle id="150" depart="360.00">
        <route edges="gneE13 gneE2"/>
    </vehicle>
    <vehicle id="151" depart="362.40">
        <route edges="gneE0 gneE3 gneE1 gneE4"/>
    </vehicle>
    <vehicle id="152" depart="364.80">
        <route edges="gneE12 gneE4 gneE2"/>
    </vehicle>
    <vehicle id="153" depart="367.20">
        <route edges="gneE10 gneE3 gneE1 gneE4 gneE2"/>
    </vehicle>
    <vehicle id="154" depart="369.60">
        <route edges="gneE0 gneE3 gneE1 gneE4 gneE2"/>
    </vehicle>
    <vehicle id="155" depart="372.00">
        <route edges="gneE12 gneE4 gneE2"/>
    </vehicle>
    <vehicle id="156" depart="374.40">
        <route edges="gneE12 gneE4 gneE2"/>
    </vehicle>
    <vehicle id="157" depart="376.80">
        <route edges="gneE0 gneE3 gneE1 gneE4 gneE2"/>
    </vehicle>
    <vehicle id="158" depart="379.20">
        <route edges="gneE0 gneE3 gneE1 gneE4 gneE2"/>
    </vehicle>
    <vehicle id="160" depart="384.00">
        <route edges="gneE11 gneE1 gneE4"/>
    </vehicle>
    <vehicle id="161" depart="386.40">
        <route edges="gneE12 gneE4 gneE2"/>
    </vehicle>
    <vehicle id="163" depart="391.20">
        <route edges="gneE11 gneE1 gneE4 gneE2"/>
    </vehicle>
    <vehicle id="164" depart="393.60">
        <route edges="gneE11 gneE1 gneE4 gneE2"/>
    </vehicle>
    <vehicle id="165" depart="396.00">
        <route edges="gneE12 gneE4"/>
    </vehicle>
    <vehicle id="166" depart="398.40">
        <route edges="gneE13 gneE2"/>
    </vehicle>
    <vehicle id="167" depart="400.80">
        <route edges="gneE13 gneE2"/>
    </vehicle>
    <vehicle id="168" depart="403.20">
        <route edges="gneE0 gneE3 gneE1 gneE4 gneE2"/>
    </vehicle>
    <vehicle id="170" depart="408.00">
        <route edges="gneE13 gneE2"/>
    </vehicle>
    <vehicle id="171" depart="410.40">
        <route edges="gneE11 gneE1 gneE4 gneE2"/>
    </vehicle>
    <vehicle id="172" depart="412.80">
        <route edges="gneE12 gneE4 gneE2"/>
    </vehicle>
    <vehicle id="173" depart="415.20">
        <route edges="gneE13 gneE2"/>
    </vehicle>
    <vehicle id="174" depart="417.60">
        <route edges="gneE0 gneE3 gneE1 gneE4 gneE2"/>
    </vehicle>
    <vehicle id="175" depart="420.00">
        <route edges="gneE12 gneE4 gneE2"/>
    </vehicle>
    <vehicle id="176" depart="422.40">
        <route edges="gneE4 gneE2"/>
    </vehicle>
    <vehicle id="178" depart="427.20">
        <route edges="gneE10 gneE3 gneE1 gneE4 gneE2"/>
    </vehicle>
    <vehicle id="179" depart="429.60">
        <route edges="gneE11 gneE1"/>
    </vehicle>
    <vehicle id="180" depart="432.00">
        <route edges="gneE12 gneE4 gneE2"/>
    </vehicle>
    <vehicle id="182" depart="436.80">
        <route edges="gneE12 gneE4 gneE2"/>
    </vehicle>
    <vehicle id="184" depart="441.60">
        <route edges="gneE0 gneE3 gneE1 gneE4 gneE2"/>
    </vehicle>
    <vehicle id="186" depart="446.40">
        <route edges="gneE10 gneE3 gneE1 gneE4 gneE2"/>
    </vehicle>
    <vehicle id="188" depart="451.20">
        <route edges="gneE13 gneE2"/>
    </vehicle>
    <vehicle id="189" depart="453.60">
        <route edges="gneE12 gneE4 gneE2"/>
    </vehicle>
    <vehicle id="190" depart="456.00">
        <route edges="gneE12 gneE4 gneE2"/>
    </vehicle>
    <vehicle id="192" depart="460.80">
        <route edges="gneE11 gneE1 gneE4 gneE2"/>
    </vehicle>
    <vehicle id="193" depart="463.20">
        <route edges="gneE10 gneE3 gneE1 gneE4"/>
    </vehicle>
    <vehicle id="194" depart="465.60">
        <route edges="gneE0 gneE3 gneE1"/>
    </vehicle>
    <vehicle id="195" depart="468.00">
        <route edges="gneE3 gneE1 gneE4 gneE2"/>
    </vehicle>
    <vehicle id="196" depart="470.40">
        <route edges="gneE10 gneE3 gneE1 gneE4 gneE2"/>
    </vehicle>
    <vehicle id="197" depart="472.80">
        <route edges="gneE0 gneE3 gneE1 gneE4 gneE2"/>
    </vehicle>
    <vehicle id="198" depart="475.20">
        <route edges="gneE10 gneE3 gneE1 gneE4 gneE2"/>
    </vehicle>
    <vehicle id="199" depart="477.60">
        <route edges="gneE3 gneE1 gneE4 gneE2"/>
    </vehicle>
    <vehicle id="201" depart="482.40">
        <route edges="gneE3 gneE1 gneE4 gneE2"/>
    </vehicle>
    <vehicle id="202" depart="484.80">
        <route edges="gneE13 gneE2"/>
    </vehicle>
    <vehicle id="203" depart="487.20">
        <route edges="gneE0 gneE3 gneE1 gneE4 gneE2"/>
    </vehicle>
    <vehicle id="205" depart="492.00">
        <route edges="gneE11 gneE1 gneE4 gneE2"/>
    </vehicle>
    <vehicle id="206" depart="494.40">
        <route edges="gneE13 gneE2"/>
    </vehicle>
    <vehicle id="207" depart="496.80">
        <route edges="gneE0 gneE3 gneE1 gneE4 gneE2"/>
    </vehicle>
    <vehicle id="208" depart="499.20">
        <route edges="gneE0 gneE3 gneE1 gneE4 gneE2"/>
    </vehicle>
    <vehicle id="209" depart="501.60">
        <route edges="gneE4 gneE2"/>
    </vehicle>
    <vehicle id="210" depart="504.00">
        <route edges="gneE13 gneE2"/>
    </vehicle>
    <vehicle id="211" depart="506.40">
        <route edges="gneE3 gneE1 gneE4 gneE2"/>
    </vehicle>
    <vehicle id="212" depart="508.80">
        <route edges="gneE10 gneE3 gneE1 gneE4 gneE2"/>
    </vehicle>
    <vehicle id="215" depart="516.00">
        <route edges="gneE3 gneE1 gneE4 gneE2"/>
    </vehicle>
    <vehicle id="216" depart="518.40">
        <route edges="gneE0 gneE3 gneE1 gneE4 gneE2"/>
    </vehicle>
    <vehicle id="217" depart="520.80">
        <route edges="gneE11 gneE1 gneE4 gneE2"/>
    </vehicle>
    <vehicle id="218" depart="523.20">
        <route edges="gneE13 gneE2"/>
    </vehicle>
    <vehicle id="219" depart="525.60">
        <route edges="gneE0 gneE3 gneE1 gneE4 gneE2"/>
    </vehicle>
    <vehicle id="221" depart="530.40">
        <route edges="gneE0 gneE3 gneE1 gneE4 gneE2"/>
    </vehicle>
    <vehicle id="222" depart="532.80">
        <route edges="gneE11 gneE1 gneE4 gneE2"/>
    </vehicle>
    <vehicle id="223" depart="535.20">
        <route edges="gneE10 gneE3 gneE1 gneE4 gneE2"/>
    </vehicle>
    <vehicle id="224" depart="537.60">
        <route edges="gneE0 gneE3 gneE1 gneE4 gneE2"/>
    </vehicle>
    <vehicle id="225" depart="540.00">
        <route edges="gneE0 gneE3 gneE1 gneE4 gneE2"/>
    </vehicle>
    <vehicle id="226" depart="542.40">
        <route edges="gneE0 gneE3"/>
    </vehicle>
    <vehicle id="227" depart="544.80">
        <route edges="gneE0 gneE3 gneE1 gneE4 gneE2"/>
    </vehicle>
    <vehicle id="228" depart="547.20">
        <route edges="gneE11 gneE1 gneE4"/>
    </vehicle>
    <vehicle id="229" depart="549.60">
        <route edges="gneE13 gneE2"/>
    </vehicle>
    <vehicle id="230" depart="552.00">
        <route edges="gneE11 gneE1 gneE4 gneE2"/>
    </vehicle>
    <vehicle id="231" depart="554.40">
        <route edges="gneE11 gneE1 gneE4 gneE2"/>
    </vehicle>
    <vehicle id="232" depart="556.80">
        <route edges="gneE12 gneE4 gneE2"/>
    </vehicle>
    <vehicle id="233" depart="559.20">
        <route edges="gneE10 gneE3 gneE1 gneE4 gneE2"/>
    </vehicle>
    <vehicle id="234" depart="561.60">
        <route edges="gneE12 gneE4 gneE2"/>
    </vehicle>
    <vehicle id="235" depart="564.00">
        <route edges="gneE12 gneE4 gneE2"/>
    </vehicle>
    <vehicle id="236" depart="566.40">
        <route edges="gneE0 gneE3 gneE1 gneE4"/>
    </vehicle>
    <vehicle id="237" depart="568.80">
        <route edges="gneE1 gneE4 gneE2"/>
    </vehicle>
    <vehicle id="238" depart="571.20">
        <route edges="gneE13 gneE2"/>
    </vehicle>
    <vehicle id="239" depart="573.60">
        <route edges="gneE1 gneE4 gneE2"/>
    </vehicle>
    <vehicle id="240" depart="576.00">
        <route edges="gneE0 gneE3 gneE1 gneE4 gneE2"/>
    </vehicle>
    <vehicle id="241" depart="578.40">
        <route edges="gneE10 gneE3 gneE1 gneE4 gneE2"/>
    </vehicle>
    <vehicle id="242" depart="580.80">
        <route edges="gneE0 gneE3 gneE1 gneE4"/>
    </vehicle>
    <vehicle id="243" depart="583.20">
        <route edges="gneE0 gneE3 gneE1 gneE4 gneE2"/>
    </vehicle>
    <vehicle id="244" depart="585.60">
        <route edges="gneE13 gneE2"/>
    </vehicle>
    <vehicle id="245" depart="588.00">
        <route edges="gneE12 gneE4 gneE2"/>
    </vehicle>
    <vehicle id="246" depart="590.40">
        <route edges="gneE12 gneE4 gneE2"/>
    </vehicle>
    <vehicle id="247" depart="592.80">
        <route edges="gneE10 gneE3 gneE1 gneE4 gneE2"/>
    </vehicle>
    <vehicle id="248" depart="595.20">
        <route edges="gneE12 gneE4 gneE2"/>
    </vehicle>
    <vehicle id="249" depart="597.60">
        <route edges="gneE13 gneE2"/>
    </vehicle>
    <vehicle id="250" depart="600.00">
        <route edges="gneE10 gneE3 gneE1 gneE4"/>
    </vehicle>
    <vehicle id="251" depart="602.40">
        <route edges="gneE10 gneE3 gneE1 gneE4"/>
    </vehicle>
    <vehicle id="252" depart="604.80">
        <route edges="gneE13 gneE2"/>
    </vehicle>
    <vehicle id="253" depart="607.20">
        <route edges="gneE12 gneE4"/>
    </vehicle>
    <vehicle id="254" depart="609.60">
        <route edges="gneE13 gneE2"/>
    </vehicle>
    <vehicle id="255" depart="612.00">
        <route edges="gneE11 gneE1 gneE4 gneE2"/>
    </vehicle>
    <vehicle id="256" depart="614.40">
        <route edges="gneE0 gneE3 gneE1 gneE4 gneE2"/>
    </vehicle>
    <vehicle id="257" depart="616.80">
        <route edges="gneE13 gneE2"/>
    </vehicle>
    <vehicle id="258" depart="619.20">
        <route edges="gneE11 gneE1 gneE4 gneE2"/>
    </vehicle>
    <vehicle id="259" depart="621.60">
        <route edges="gneE0 gneE3"/>
    </vehicle>
    <vehicle id="260" depart="624.00">
        <route edges="gneE11 gneE1 gneE4 gneE2"/>
    </vehicle>
    <vehicle id="261" depart="626.40">
        <route edges="gneE10 gneE3"/>
    </vehicle>
    <vehicle id="263" depart="631.20">
        <route edges="gneE10 gneE3"/>
    </vehicle>
    <vehicle id="264" depart="633.60">
        <route edges="gneE11 gneE1 gneE4 gneE2"/>
    </vehicle>
    <vehicle id="265" depart="636.00">
        <route edges="gneE11 gneE1 gneE4 gneE2"/>
    </vehicle>
    <vehicle id="266" depart="638.40">
        <route edges="gneE11 gneE1"/>
    </vehicle>
    <vehicle id="267" depart="640.80">
        <route edges="gneE10 gneE3 gneE1 gneE4 gneE2"/>
    </vehicle>
    <vehicle id="268" depart="643.20">
        <route edges="gneE12 gneE4 gneE2"/>
    </vehicle>
    <vehicle id="269" depart="645.60">
        <route edges="gneE12 gneE4 gneE2"/>
    </vehicle>
    <vehicle id="270" depart="648.00">
        <route edges="gneE10 gneE3 gneE1 gneE4 gneE2"/>
    </vehicle>
    <vehicle id="271" depart="650.40">
        <route edges="gneE11 gneE1 gneE4 gneE2"/>
    </vehicle>
    <vehicle id="272" depart="652.80">
        <route edges="gneE13 gneE2"/>
    </vehicle>
    <vehicle id="273" depart="655.20">
        <route edges="gneE12 gneE4 gneE2"/>
    </vehicle>
    <vehicle id="275" depart="660.00">
        <route edges="gneE0 gneE3 gneE1"/>
    </vehicle>
    <vehicle id="276" depart="662.40">
        <route edges="gneE11 gneE1 gneE4 gneE2"/>
    </vehicle>
    <vehicle id="277" depart="664.80">
        <route edges="gneE11 gneE1 gneE4"/>
    </vehicle>
    <vehicle id="278" depart="667.20">
        <route edges="gneE0 gneE3 gneE1"/>
    </vehicle>
    <vehicle id="279" depart="669.60">
        <route edges="gneE11 gneE1 gneE4 gneE2"/>
    </vehicle>
    <vehicle id="280" depart="672.00">
        <route edges="gneE10 gneE3 gneE1 gneE4 gneE2"/>
    </vehicle>
    <vehicle id="282" depart="676.80">
        <route edges="gneE11 gneE1 gneE4 gneE2"/>
    </vehicle>
    <vehicle id="283" depart="679.20">
        <route edges="gneE0 gneE3 gneE1 gneE4 gneE2"/>
    </vehicle>
    <vehicle id="284" depart="681.60">
        <route edges="gneE13 gneE2"/>
    </vehicle>
    <vehicle id="285" depart="684.00">
        <route edges="gneE0 gneE3 gneE1 gneE4 gneE2"/>
    </vehicle>
    <vehicle id="286" depart="686.40">
        <route edges="gneE0 gneE3 gneE1 gneE4 gneE2"/>
    </vehicle>
    <vehicle id="287" depart="688.80">
        <route edges="gneE11 gneE1 gneE4"/>
    </vehicle>
    <vehicle id="288" depart="691.20">
        <route edges="gneE13 gneE2"/>
    </vehicle>
    <vehicle id="289" depart="693.60">
        <route edges="gneE0 gneE3 gneE1"/>
    </vehicle>
    <vehicle id="290" depart="696.00">
        <route edges="gneE13 gneE2"/>
    </vehicle>
    <vehicle id="291" depart="698.40">
        <route edges="gneE13 gneE2"/>
    </vehicle>
    <vehicle id="293" depart="703.20">
        <route edges="gneE13 gneE2"/>
    </vehicle>
    <vehicle id="296" depart="710.40">
        <route edges="gneE0 gneE3 gneE1 gneE4 gneE2"/>
    </vehicle>
    <vehicle id="297" depart="712.80">
        <route edges="gneE3 gneE1 gneE4 gneE2"/>
    </vehicle>
    <vehicle id="298" depart="715.20">
        <route edges="gneE0 gneE3 gneE1 gneE4 gneE2"/>
    </vehicle>
    <vehicle id="300" depart="720.00">
        <route edges="gneE11 gneE1 gneE4"/>
    </vehicle>
    <vehicle id="301" depart="722.40">
        <route edges="gneE10 gneE3 gneE1 gneE4 gneE2"/>
    </vehicle>
    <vehicle id="302" depart="724.80">
        <route edges="gneE10 gneE3 gneE1 gneE4 gneE2"/>
    </vehicle>
    <vehicle id="303" depart="727.20">
        <route edges="gneE0 gneE3 gneE1 gneE4 gneE2"/>
    </vehicle>
    <vehicle id="304" depart="729.60">
        <route edges="gneE4 gneE2"/>
    </vehicle>
    <vehicle id="305" depart="732.00">
        <route edges="gneE11 gneE1 gneE4 gneE2"/>
    </vehicle>
    <vehicle id="306" depart="734.40">
        <route edges="gneE11 gneE1 gneE4"/>
    </vehicle>
    <vehicle id="307" depart="736.80">
        <route edges="gneE11 gneE1 gneE4 gneE2"/>
    </vehicle>
    <vehicle id="308" depart="739.20">
        <route edges="gneE13 gneE2"/>
    </vehicle>
    <vehicle id="309" depart="741.60">
        <route edges="gneE0 gneE3 gneE1 gneE4 gneE2"/>
    </vehicle>
    <vehicle id="310" depart="744.00">
        <route edges="gneE13 gneE2"/>
    </vehicle>
    <vehicle id="311" depart="746.40">
        <route edges="gneE13 gneE2"/>
    </vehicle>
    <vehicle id="312" depart="748.80">
        <route edges="gneE3 gneE1 gneE4 gneE2"/>
    </vehicle>
    <vehicle id="313" depart="751.20">
        <route edges="gneE10 gneE3 gneE1 gneE4 gneE2"/>
    </vehicle>
    <vehicle id="314" depart="753.60">
        <route edges="gneE13 gneE2"/>
    </vehicle>
    <vehicle id="315" depart="756.00">