<?xml version="1.0" encoding="UTF-8"?>

<!-- generated on Sun Sep 23 20:29:10 2018 by SUMO duarouter Version 0.30.0
<?xml version="1.0" encoding="UTF-8"?>

<configuration xmlns:xsi="http://www.w3.org/2001/XMLSchema-instance" xsi:noNamespaceSchemaLocation="http://sumo.dlr.de/xsd/duarouterConfiguration.xsd">

    <input>
        <net-file value="principal/principal.net.xml"/>
        <route-files value="trips.trips.xml"/>
    </input>

    <output>
        <output-file value="principal/route/principal-2.8-3.rou.xml"/>
    </output>

    <processing>
        <ignore-errors value="true"/>
    </processing>

    <time>
        <begin value="0.0"/>
        <end value="5400.0"/>
    </time>

    <report>
        <no-warnings value="true"/>
        <no-step-log value="true"/>
    </report>

</configuration>
-->

<routes xmlns:xsi="http://www.w3.org/2001/XMLSchema-instance" xsi:noNamespaceSchemaLocation="http://sumo.dlr.de/xsd/routes_file.xsd">
    <vehicle id="0" depart="0.00">
        <route edges="gneE11 gneE1 gneE4 gneE2"/>
    </vehicle>
    <vehicle id="1" depart="2.80">
        <route edges="gneE12 gneE4 gneE2"/>
    </vehicle>
    <vehicle id="2" depart="5.60">
        <route edges="gneE11 gneE1 gneE4 gneE2"/>
    </vehicle>
    <vehicle id="3" depart="8.40">
        <route edges="gneE0 gneE3 gneE1 gneE4 gneE2"/>
    </vehicle>
    <vehicle id="4" depart="11.20">
        <route edges="gneE12 gneE4 gneE2"/>
    </vehicle>
    <vehicle id="5" depart="14.00">
        <route edges="gneE10 gneE3 gneE1"/>
    </vehicle>
    <vehicle id="6" depart="16.80">
        <route edges="gneE11 gneE1 gneE4 gneE2"/>
    </vehicle>
    <vehicle id="7" depart="19.60">
        <route edges="gneE13 gneE2"/>
    </vehicle>
    <vehicle id="8" depart="22.40">
        <route edges="gneE13 gneE2"/>
    </vehicle>
    <vehicle id="9" depart="25.20">
        <route edges="gneE13 gneE2"/>
    </vehicle>
    <vehicle id="10" depart="28.00">
        <route edges="gneE10 gneE3 gneE1 gneE4 gneE2"/>
    </vehicle>
    <vehicle id="11" depart="30.80">
        <route edges="gneE0 gneE3 gneE1 gneE4 gneE2"/>
    </vehicle>
    <vehicle id="12" depart="33.60">
        <route edges="gneE12 gneE4 gneE2"/>
    </vehicle>
    <vehicle id="13" depart="36.40">
        <route edges="gneE10 gneE3 gneE1 gneE4 gneE2"/>
    </vehicle>
    <vehicle id="14" depart="39.20">
        <route edges="gneE13 gneE2"/>
    </vehicle>
    <vehicle id="15" depart="42.00">
        <route edges="gneE10 gneE3 gneE1 gneE4 gneE2"/>
    </vehicle>
    <vehicle id="16" depart="44.80">
        <route edges="gneE10 gneE3"/>
    </vehicle>
    <vehicle id="17" depart="47.60">
        <route edges="gneE10 gneE3 gneE1 gneE4"/>
    </vehicle>
    <vehicle id="18" depart="50.40">
        <route edges="gneE11 gneE1 gneE4"/>
    </vehicle>
    <vehicle id="19" depart="53.20">
        <route edges="gneE10 gneE3 gneE1 gneE4 gneE2"/>
    </vehicle>
    <vehicle id="20" depart="56.00">
        <route edges="gneE0 gneE3 gneE1 gneE4 gneE2"/>
    </vehicle>
    <vehicle id="21" depart="58.80">
        <route edges="gneE13 gneE2"/>
    </vehicle>
    <vehicle id="22" depart="61.60">
        <route edges="gneE1 gneE4"/>
    </vehicle>
    <vehicle id="23" depart="64.40">
        <route edges="gneE12 gneE4 gneE2"/>
    </vehicle>
    <vehicle id="24" depart="67.20">
        <route edges="gneE11 gneE1 gneE4 gneE2"/>
    </vehicle>
    <vehicle id="25" depart="70.00">
        <route edges="gneE11 gneE1 gneE4 gneE2"/>
    </vehicle>
    <vehicle id="26" depart="72.80">
        <route edges="gneE3 gneE1 gneE4 gneE2"/>
    </vehicle>
    <vehicle id="27" depart="75.60">
        <route edges="gneE10 gneE3 gneE1 gneE4 gneE2"/>
    </vehicle>
    <vehicle id="28" depart="78.40">
        <route edges="gneE13 gneE2"/>
    </vehicle>
    <vehicle id="29" depart="81.20">
        <route edges="gneE10 gneE3 gneE1 gneE4 gneE2"/>
    </vehicle>
    <vehicle id="30" depart="84.00">
        <route edges="gneE13 gneE2"/>
    </vehicle>
    <vehicle id="31" depart="86.80">
        <route edges="gneE0 gneE3 gneE1 gneE4 gneE2"/>
    </vehicle>
    <vehicle id="32" depart="89.60">
        <route edges="gneE10 gneE3 gneE1 gneE4"/>
    </vehicle>
    <vehicle id="33" depart="92.40">
        <route edges="gneE12 gneE4"/>
    </vehicle>
    <vehicle id="34" depart="95.20">
        <route edges="gneE13 gneE2"/>
    </vehicle>
    <vehicle id="35" depart="98.00">
        <route edges="gneE12 gneE4 gneE2"/>
    </vehicle>
    <vehicle id="36" depart="100.80">
        <route edges="gneE11 gneE1 gneE4 gneE2"/>
    </vehicle>
    <vehicle id="37" depart="103.60">
        <route edges="gneE11 gneE1 gneE4 gneE2"/>
    </vehicle>
    <vehicle id="38" depart="106.40">
        <route edges="gneE0 gneE3 gneE1 gneE4 gneE2"/>
    </vehicle>
    <vehicle id="39" depart="109.20">
        <route edges="gneE3 gneE1 gneE4 gneE2"/>
    </vehicle>
    <vehicle id="40" depart="112.00">
        <route edges="gneE0 gneE3 gneE1 gneE4 gneE2"/>
    </vehicle>
    <vehicle id="41" depart="114.80">
        <route edges="gneE13 gneE2"/>
    </vehicle>
    <vehicle id="42" depart="117.60">
        <route edges="gneE10 gneE3 gneE1 gneE4 gneE2"/>
    </vehicle>
    <vehicle id="43" depart="120.40">
        <route edges="gneE12 gneE4 gneE2"/>
    </vehicle>
    <vehicle id="44" depart="123.20">
        <route edges="gneE10 gneE3 gneE1"/>
    </vehicle>
    <vehicle id="45" depart="126.00">
        <route edges="gneE13 gneE2"/>
    </vehicle>
    <vehicle id="46" depart="128.80">
        <route edges="gneE10 gneE3 gneE1 gneE4 gneE2"/>
    </vehicle>
    <vehicle id="47" depart="131.60">
        <route edges="gneE10 gneE3 gneE1"/>
    </vehicle>
    <vehicle id="48" depart="134.40">
        <route edges="gneE11 gneE1 gneE4"/>
    </vehicle>
    <vehicle id="49" depart="137.20">
        <route edges="gneE13 gneE2"/>
    </vehicle>
    <vehicle id="50" depart="140.00">
        <route edges="gneE12 gneE4 gneE2"/>
    </vehicle>
    <vehicle id="51" depart="142.80">
        <route edges="gneE11 gneE1 gneE4 gneE2"/>
    </vehicle>
    <vehicle id="52" depart="145.60">
        <route edges="gneE0 gneE3 gneE1 gneE4 gneE2"/>
    </vehicle>
    <vehicle id="53" depart="148.40">
        <route edges="gneE0 gneE3"/>
    </vehicle>
    <vehicle id="54" depart="151.20">
        <route edges="gneE0 gneE3 gneE1 gneE4 gneE2"/>
    </vehicle>
    <vehicle id="55" depart="154.00">
        <route edges="gneE0 gneE3 gneE1 gneE4 gneE2"/>
    </vehicle>
    <vehicle id="56" depart="156.80">
        <route edges="gneE13 gneE2"/>
    </vehicle>
    <vehicle id="57" depart="159.60">
        <route edges="gneE12 gneE4 gneE2"/>
    </vehicle>
    <vehicle id="58" depart="162.40">
        <route edges="gneE11 gneE1 gneE4 gneE2"/>
    </vehicle>
    <vehicle id="59" depart="165.20">
        <route edges="gneE3 gneE1 gneE4 gneE2"/>
    </vehicle>
    <vehicle id="60" depart="168.00">
        <route edges="gneE11 gneE1 gneE4"/>
    </vehicle>
    <vehicle id="61" depart="170.80">
        <route edges="gneE0 gneE3 gneE1 gneE4"/>
    </vehicle>
    <vehicle id="62" depart="173.60">
        <route edges="gneE10 gneE3 gneE1 gneE4"/>
    </vehicle>
    <vehicle id="64" depart="179.20">
        <route edges="gneE10 gneE3 gneE1 gneE4 gneE2"/>
    </vehicle>
    <vehicle id="65" depart="182.00">
        <route edges="gneE10 gneE3 gneE1 gneE4 gneE2"/>
    </vehicle>
    <vehicle id="66" depart="184.80">
        <route edges="gneE12 gneE4 gneE2"/>
    </vehicle>
    <vehicle id="67" depart="187.60">
        <route edges="gneE10 gneE3 gneE1 gneE4 gneE2"/>
    </vehicle>
    <vehicle id="68" depart="190.40">
        <route edges="gneE4 gneE2"/>
    </vehicle>
    <vehicle id="69" depart="193.20">
        <route edges="gneE12 gneE4 gneE2"/>
    </vehicle>
    <vehicle id="70" depart="196.00">
        <route edges="gneE0 gneE3 gneE1 gneE4 gneE2"/>
    </vehicle>
    <vehicle id="71" depart="198.80">
        <route edges="gneE13 gneE2"/>
    </vehicle>
    <vehicle id="72" depart="201.60">
        <route edges="gneE12 gneE4"/>
    </vehicle>
    <vehicle id="73" depart="204.40">
        <route edges="gneE11 gneE1 gneE4 gneE2"/>
    </vehicle>
    <vehicle id="74" depart="207.20">
        <route edges="gneE4 gneE2"/>
    </vehicle>
    <vehicle id="75" depart="210.00">
        <route edges="gneE0 gneE3 gneE1 gneE4"/>
    </vehicle>
    <vehicle id="76" depart="212.80">
        <route edges="gneE1"/>
    </vehicle>
    <vehicle id="77" depart="215.60">
        <route edges="gneE11 gneE1 gneE4 gneE2"/>
    </vehicle>
    <vehicle id="78" depart="218.40">
        <route edges="gneE10 gneE3 gneE1 gneE4 gneE2"/>
    </vehicle>
    <vehicle id="79" depart="221.20">
        <route edges="gneE0 gneE3 gneE1 gneE4 gneE2"/>
    </vehicle>
    <vehicle id="80" depart="224.00">
        <route edges="gneE0 gneE3 gneE1 gneE4 gneE2"/>
    </vehicle>
    <vehicle id="81" depart="226.80">
        <route edges="gneE12 gneE4 gneE2"/>
    </vehicle>
    <vehicle id="82" depart="229.60">
        <route edges="gneE13 gneE2"/>
    </vehicle>
    <vehicle id="83" depart="232.40">
        <route edges="gneE11 gneE1 gneE4 gneE2"/>
    </vehicle>
    <vehicle id="84" depart="235.20">
        <route edges="gneE0 gneE3 gneE1 gneE4 gneE2"/>
    </vehicle>
    <vehicle id="85" depart="238.00">
        <route edges="gneE10 gneE3 gneE1 gneE4 gneE2"/>
    </vehicle>
    <vehicle id="86" depart="240.80">
        <route edges="gneE12 gneE4 gneE2"/>
    </vehicle>
    <vehicle id="88" depart="246.40">
        <route edges="gneE11 gneE1 gneE4 gneE2"/>
    </vehicle>
    <vehicle id="89" depart="249.20">
        <route edges="gneE0 gneE3 gneE1 gneE4 gneE2"/>
    </vehicle>
    <vehicle id="90" depart="252.00">
        <route edges="gneE12 gneE4 gneE2"/>
    </vehicle>
    <vehicle id="91" depart="254.80">
        <route edges="gneE12 gneE4 gneE2"/>
    </vehicle>
    <vehicle id="93" depart="260.40">
        <route edges="gneE12 gneE4 gneE2"/>
    </vehicle>
    <vehicle id="94" depart="263.20">
        <route edges="gneE12 gneE4 gneE2"/>
    </vehicle>
    <vehicle id="95" depart="266.00">
        <route edges="gneE12 gneE4 gneE2"/>
    </vehicle>
    <vehicle id="96" depart="268.80">
        <route edges="gneE10 gneE3 gneE1 gneE4 gneE2"/>
    </vehicle>
    <vehicle id="97" depart="271.60">
        <route edges="gneE11 gneE1 gneE4 gneE2"/>
    </vehicle>
    <vehicle id="98" depart="274.40">
        <route edges="gneE13 gneE2"/>
    </vehicle>
    <vehicle id="99" depart="277.20">
        <route edges="gneE13 gneE2"/>
    </vehicle>
    <vehicle id="100" depart="280.00">
        <route edges="gneE10 gneE3 gneE1 gneE4 gneE2"/>
    </vehicle>
    <vehicle id="101" depart="282.80">
        <route edges="gneE12 gneE4"/>
    </vehicle>
    <vehicle id="102" depart="285.60">
        <route edges="gneE0 gneE3 gneE1 gneE4"/>
    </vehicle>
    <vehicle id="103" depart="288.40">
        <route edges="gneE11 gneE1 gneE4 gneE2"/>
    </vehicle>
    <vehicle id="104" depart="291.20">
        <route edges="gneE0 gneE3 gneE1 gneE4 gneE2"/>
    </vehicle>
    <vehicle id="105" depart="294.00">
        <route edges="gneE11 gneE1 gneE4 gneE2"/>
    </vehicle>
    <vehicle id="106" depart="296.80">
        <route edges="gneE10 gneE3 gneE1 gneE4 gneE2"/>
    </vehicle>
    <vehicle id="107" depart="299.60">
        <route edges="gneE13 gneE2"/>
    </vehicle>
    <vehicle id="108" depart="302.40">
        <route edges="gneE11 gneE1 gneE4 gneE2"/>
    </vehicle>
    <vehicle id="109" depart="305.20">
        <route edges="gneE0 gneE3 gneE1"/>
    </vehicle>
    <vehicle id="110" depart="308.00">
        <route edges="gneE11 gneE1 gneE4 gneE2"/>
    </vehicle>
    <vehicle id="111" depart="310.80">
        <route edges="gneE10 gneE3 gneE1 gneE4 gneE2"/>
    </vehicle>
    <vehicle id="112" depart="313.60">
        <route edges="gneE12 gneE4 gneE2"/>
    </vehicle>
    <vehicle id="113" depart="316.40">
        <route edges="gneE10 gneE3 gneE1 gneE4 gneE2"/>
    </vehicle>
    <vehicle id="114" depart="319.20">
        <route edges="gneE0 gneE3 gneE1 gneE4"/>
    </vehicle>
    <vehicle id="115" depart="322.00">
        <route edges="gneE11 gneE1 gneE4 gneE2"/>
    </vehicle>
    <vehicle id="116" depart="324.80">
        <route edges="gneE0 gneE3 gneE1 gneE4 gneE2"/>
    </vehicle>
    <vehicle id="117" depart="327.60">
        <route edges="gneE11 gneE1"/>
    </vehicle>
    <vehicle id="118" depart="330.40">
        <route edges="gneE10 gneE3 gneE1 gneE4 gneE2"/>
    </vehicle>
    <vehicle id="119" depart="333.20">
        <route edges="gneE11 gneE1 gneE4 gneE2"/>
    </vehicle>
    <vehicle id="121" depart="338.80">
        <route edges="gneE12 gneE4 gneE2"/>
    </vehicle>
    <vehicle id="122" depart="341.60">
        <route edges="gneE11 gneE1 gneE4 gneE2"/>
    </vehicle>
    <vehicle id="123" depart="344.40">
        <route edges="gneE0 gneE3 gneE1"/>
    </vehicle>
    <vehicle id="125" depart="350.00">
        <route edges="gneE13 gneE2"/>
    </vehicle>
    <vehicle id="126" depart="352.80">
        <route edges="gneE0 gneE3 gneE1 gneE4 gneE2"/>
    </vehicle>
    <vehicle id="127" depart="355.60">
        <route edges="gneE10 gneE3 gneE1 gneE4 gneE2"/>
    </vehicle>
    <vehicle id="128" depart="358.40">
        <route edges="gneE0 gneE3 gneE1"/>
    </vehicle>
    <vehicle id="129" depart="361.20">
        <route edges="gneE11 gneE1 gneE4 gneE2"/>
    </vehicle>
    <vehicle id="130" depart="364.00">
        <route edges="gneE11 gneE1 gneE4 gneE2"/>
    </vehicle>
    <vehicle id="131" depart="366.80">
        <route edges="gneE11 gneE1 gneE4 gneE2"/>
    </vehicle>
    <vehicle id="132" depart="369.60">
        <route edges="gneE0 gneE3 gneE1 gneE4 gneE2"/>
    </vehicle>
    <vehicle id="133" depart="372.40">
        <route edges="gneE10 gneE3 gneE1 gneE4 gneE2"/>
    </vehicle>
    <vehicle id="134" depart="375.20">
        <route edges="gneE0 gneE3"/>
    </vehicle>
    <vehicle id="135" depart="378.00">
        <route edges="gneE0 gneE3 gneE1 gneE4 gneE2"/>
    </vehicle>
    <vehicle id="136" depart="380.80">
        <route edges="gneE10 gneE3 gneE1 gneE4 gneE2"/>
    </vehicle>
    <vehicle id="137" depart="383.60">
        <route edges="gneE10 gneE3 gneE1 gneE4 gneE2"/>
    </vehicle>
    <vehicle id="139" depart="389.20">
        <route edges="gneE13 gneE2"/>
    </vehicle>
    <vehicle id="140" depart="392.00">
        <route edges="gneE1 gneE4 gneE2"/>
    </vehicle>
    <vehicle id="141" depart="394.80">
        <route edges="gneE0 gneE3 gneE1"/>
    </vehicle>
    <vehicle id="142" depart="397.60">
        <route edges="gneE13 gneE2"/>
    </vehicle>
    <vehicle id="143" depart="400.40">
        <route edges="gneE10 gneE3 gneE1 gneE4 gneE2"/>
    </vehicle>
    <vehicle id="144" depart="403.20">
        <route edges="gneE0 gneE3 gneE1 gneE4 gneE2"/>
    </vehicle>
    <vehicle id="145" depart="406.00">
        <route edges="gneE10 gneE3 gneE1 gneE4"/>
    </vehicle>
    <vehicle id="146" depart="408.80">
        <route edges="gneE11 gneE1 gneE4 gneE2"/>
    </vehicle>
    <vehicle id="147" depart="411.60">
        <route edges="gneE13 gneE2"/>
    </vehicle>
    <vehicle id="148" depart="414.40">
        <route edges="gneE13 gneE2"/>
    </vehicle>
    <vehicle id="149" depart="417.20">
        <route edges="gneE0 gneE3 gneE1 gneE4 gneE2"/>
    </vehicle>
    <vehicle id="150" depart="420.00">
        <route edges="gneE13 gneE2"/>
    </vehicle>
    <vehicle id="151" depart="422.80">
        <route edges="gneE0 gneE3 gneE1 gneE4 gneE2"/>
    </vehicle>
    <vehicle id="152" depart="425.60">
        <route edges="gneE0 gneE3 gneE1 gneE4 gneE2"/>
    </vehicle>
    <vehicle id="153" depart="428.40">
        <route edges="gneE11 gneE1 gneE4 gneE2"/>
    </vehicle>
    <vehicle id="154" depart="431.20">
        <route edges="gneE12 gneE4 gneE2"/>
    </vehicle>
    <vehicle id="155" depart="434.00">
        <route edges="gneE10 gneE3 gneE1 gneE4"/>
    </vehicle>
    <vehicle id="156" depart="436.80">
        <route edges="gneE10 gneE3 gneE1"/>
    </vehicle>
    <vehicle id="157" depart="439.60">
        <route edges="gneE0 gneE3 gneE1 gneE4 gneE2"/>
    </vehicle>
    <vehicle id="158" depart="442.40">
        <route edges="gneE0 gneE3"/>
    </vehicle>
    <vehicle id="159" depart="445.20">
        <route edges="gneE4 gneE2"/>
    </vehicle>
    <vehicle id="160" depart="448.00">
        <route edges="gneE11 gneE1"/>
    </vehicle>
    <vehicle id="162" depart="453.60">
        <route edges="gneE0 gneE3"/>
    </vehicle>
    <vehicle id="164" depart="459.20">
        <route edges="gneE11 gneE1 gneE4 gneE2"/>
    </vehicle>
    <vehicle id="165" depart="462.00">
        <route edges="gneE0 gneE3 gneE1"/>
    </vehicle>
    <vehicle id="166" depart="464.80">
        <route edges="gneE12 gneE4 gneE2"/>
    </vehicle>
    <vehicle id="167" depart="467.60">
        <route edges="gneE10 gneE3 gneE1 gneE4 gneE2"/>
    </vehicle>
    <vehicle id="169" depart="473.20">
        <route edges="gneE11 gneE1 gneE4 gneE2"/>
    </vehicle>
    <vehicle id="170" depart="476.00">
        <route edges="gneE1 gneE4 gneE2"/>
    </vehicle>
    <vehicle id="171" depart="478.80">
        <route edges="gneE13 gneE2"/>
    </vehicle>
    <vehicle id="172" depart="481.60">
        <route edges="gneE12 gneE4 gneE2"/>
    </vehicle>
    <vehicle id="173" depart="484.40">
        <route edges="gneE10 gneE3 gneE1 gneE4 gneE2"/>
    </vehicle>
    <vehicle id="174" depart="487.20">
        <route edges="gneE0 gneE3 gneE1 gneE4 gneE2"/>
    </vehicle>
    <vehicle id="175" depart="490.00">
        <route edges="gneE11 gneE1 gneE4"/>
    </vehicle>
    <vehicle id="176" depart="492.80">
        <route edges="gneE12 gneE4 gneE2"/>
    </vehicle>
    <vehicle id="177" depart="495.60">
        <route edges="gneE11 gneE1 gneE4 gneE2"/>
    </vehicle>
    <vehicle id="178" depart="498.40">
        <route edges="gneE10 gneE3 gneE1 gneE4 gneE2"/>
    </vehicle>
    <vehicle id="179" depart="501.20">
        <route edges="gneE0 gneE3 gneE1 gneE4 gneE2"/>
    </vehicle>
    <vehicle id="180" depart="504.00">
        <route edges="gneE12 gneE4 gneE2"/>
    </vehicle>
    <vehicle id="181" depart="506.80">
        <route edges="gneE12 gneE4 gneE2"/>
    </vehicle>
    <vehicle id="182" depart="509.60">
        <route edges="gneE10 gneE3 gneE1"/>
    </vehicle>
    <vehicle id="183" depart="512.40">
        <route edges="gneE10 gneE3 gneE1 gneE4 gneE2"/>
    </vehicle>
    <vehicle id="184" depart="515.20">
        <route edges="gneE12 gneE4 gneE2"/>
    </vehicle>
    <vehicle id="185" depart="518.00">
        <route edges="gneE12 gneE4 gneE2"/>
    </vehicle>
    <vehicle id="186" depart="520.80">
        <route edges="gneE0 gneE3 gneE1 gneE4 gneE2"/>
    </vehicle>
    <vehicle id="187" depart="523.60">
        <route edges="gneE11 gneE1 gneE4 gneE2"/>
    </vehicle>
    <vehicle id="188" depart="526.40">
        <route edges="gneE13 gneE2"/>
    </vehicle>
    <vehicle id="189" depart="529.20">
        <route edges="gneE10 gneE3 gneE1 gneE4 gneE2"/>
    </vehicle>
    <vehicle id="190" depart="532.00">
        <route edges="gneE10 gneE3 gneE1 gneE4"/>
    </vehicle>
    <vehicle id="191" depart="534.80">
        <route edges="gneE0 gneE3 gneE1 gneE4 gneE2"/>
    </vehicle>
    <vehicle id="192" depart="537.60">
        <route edges="gneE0 gneE3 gneE1 gneE4 gneE2"/>
    </vehicle>
    <vehicle id="193" depart="540.40">
        <route edges="gneE10 gneE3 gneE1 gneE4 gneE2"/>
    </vehicle>
    <vehicle id="194" depart="543.20">
        <route edges="gneE11 gneE1 gneE4 gneE2"/>
    </vehicle>
    <vehicle id="195" depart="546.00">
        <route edges="gneE12 gneE4 gneE2"/>
    </vehicle>
    <vehicle id="196" depart="548.80">
        <route edges="gneE13 gneE2"/>
    </vehicle>
    <vehicle id="197" depart="551.60">
        <route edges="gneE10 gneE3 gneE1 gneE4 gneE2"/>
    </vehicle>
    <vehicle id="198" depart="554.40">
        <route edges="gneE13 gneE2"/>
    </vehicle>
    <vehicle id="199" depart="557.20">
        <route edges="gneE12 gneE4 gneE2"/>
    </vehicle>
    <vehicle id="200" depart="560.00">
        <route edges="gneE12 gneE4 gneE2"/>
    </vehicle>
    <vehicle id="201" depart="562.80">
        <route edges="gneE12 gneE4 gneE2"/>
    </vehicle>
    <vehicle id="202" depart="565.60">
        <route edges="gneE11 gneE1 gneE4"/>
    </vehicle>
    <vehicle id="203" depart="568.40">
        <route edges="gneE10 gneE3 gneE1"/>
    </vehicle>
    <vehicle id="204" depart="571.20">
        <route edges="gneE13 gneE2"/>
    </vehicle>
    <vehicle id="206" depart="576.80">
        <route edges="gneE13 gneE2"/>
    </vehicle>
    <vehicle id="207" depart="579.60">
        <route edges="gneE12 gneE4 gneE2"/>
    </vehicle>
    <vehicle id="208" depart="582.40">
        <route edges="gneE12 gneE4 gneE2"/>
    </vehicle>
    <vehicle id="209" depart="585.20">
        <route edges="gneE10 gneE3 gneE1 gneE4 gneE2"/>
    </vehicle>
    <vehicle id="210" depart="588.00">
        <route edges="gneE12 gneE4 gneE2"/>
    </vehicle>
    <vehicle id="211" depart="590.80">
        <route edges="gneE13 gneE2"/>
    </vehicle>
    <vehicle id="212" depart="593.60">
        <route edges="gneE10 gneE3 gneE1 gneE4 gneE2"/>
    </vehicle>
    <vehicle id="213" depart="596.40">
        <route edges="gneE11 gneE1 gneE4 gneE2"/>
    </vehicle>
    <vehicle id="215" depart="602.00">
        <route edges="gneE13 gneE2"/>
    </vehicle>
    <vehicle id="216" depart="604.80">
        <route edges="gneE12 gneE4 gneE2"/>
    </vehicle>
    <vehicle id="217" depart="607.60">
        <route edges="gneE13 gneE2"/>
    </vehicle>
    <vehicle id="218" depart="610.40">
        <route edges="gneE10 gneE3 gneE1 gneE4 gneE2"/>
    </vehicle>
    <vehicle id="219" depart="613.20">
        <route edges="gneE0 gneE3"/>
    </vehicle>
    <vehicle id="220" depart="616.00">
        <route edges="gneE11 gneE1"/>
    </vehicle>
    <vehicle id="221" depart="618.80">
        <route edges="gneE13 gneE2"/>
    </vehicle>
    <vehicle id="222" depart="621.60">
        <route edges="gneE0 gneE3 gneE1 gneE4 gneE2"/>
    </vehicle>
    <vehicle id="224" depart="627.20">
        <route edges="gneE11 gneE1 gneE4 gneE2"/>
    </vehicle>
    <vehicle id="225" depart="630.00">
        <route edges="gneE11 gneE1 gneE4 gneE2"/>
    </vehicle>
    <vehicle id="227" depart="635.60">
        <route edges="gneE11 gneE1 gneE4 gneE2"/>
    </vehicle>
    <vehicle id="228" depart="638.40">
        <route edges="gneE11 gneE1 gneE4 gneE2"/>
    </vehicle>
    <vehicle id="229" depart="641.20">
        <route edges="gneE10 gneE3 gneE1"/>
    </vehicle>
    <vehicle id="230" depart="644.00">
        <route edges="gneE0 gneE3 gneE1 gneE4 gneE2"/>
    </vehicle>
    <vehicle id="231" depart="646.80">
        <route edges="gneE0 gneE3 gneE1 gneE4 gneE2"/>
    </vehicle>
    <vehicle id="232" depart="649.60">
        <route edges="gneE13 gneE2"/>
    </vehicle>
    <vehicle id="233" depart="652.40">
        <route edges="gneE12 gneE4 gneE2"/>
    </vehicle>
    <vehicle id="234" depart="655.20">
        <route edges="gneE12 gneE4 gneE2"/>
    </vehicle>
    <vehicle id="235" depart="658.00">
        <route edges="gneE13 gneE2"/>
    </vehicle>
    <vehicle id="236" depart="660.80">
        <route edges="gneE0 gneE3 gneE1 gneE4 gneE2"/>
    </vehicle>
    <vehicle id="237" depart="663.60">
        <route edges="gneE12 gneE4 gneE2"/>
    </vehicle>
    <vehicle id="238" depart="666.40">
        <route edges="gneE12 gneE4 gneE2"/>
    </vehicle>
    <vehicle id="239" depart="669.20">
        <route edges="gneE11 gneE1 gneE4 gneE2"/>
    </vehicle>
    <vehicle id="240" depart="672.00">
        <route edges="gneE0 gneE3 gneE1 gneE4 gneE2"/>
    </vehicle>
    <vehicle id="241" depart="674.80">
        <route edges="gneE12 gneE4"/>
    </vehicle>
    <vehicle id="242" depart="677.60">
        <route edges="gneE10 gneE3"/>
    </vehicle>
    <vehicle id="243" depart="680.40">
        <route edges="gneE12 gneE4"/>
    </vehicle>
    <vehicle id="244" depart="683.20">
        <route edges="gneE11 gneE1 gneE4 gneE2"/>
    </vehicle>
    <vehicle id="245" depart="686.00">
        <route edges="gneE11 gneE1 gneE4 gneE2"/>
    </vehicle>
    <vehicle id="246" depart="688.80">
        <route edges="gneE0 gneE3 gneE1 gneE4"/>
    </vehicle>
    <vehicle id="247" depart="691.60">
        <route edges="gneE10 gneE3 gneE1 gneE4 gneE2"/>
    </vehicle>
    <vehicle id="248" depart="694.40">
        <route edges="gneE13 gneE2"/>
    </vehicle>
    <vehicle id="249" depart="697.20">
        <route edges="gneE13 gneE2"/>
    </vehicle>
    <vehicle id="250" depart="700.00">
        <route edges="gneE10 gneE3 gneE1 gneE4 gneE2"/>
    </vehicle>
    <vehicle id="251" depart="702.80">
        <route edges="gneE11 gneE1 gneE4 gneE2"/>
    </vehicle>
    <vehicle id="252" depart="705.60">
        <route edges="gneE10 gneE3 gneE1 gneE4 gneE2"/>
    </vehicle>
    <vehicle id="253" depart="708.40">
        <route edges="gneE10 gneE3 gneE1 gneE4 gneE2"/>
    </vehicle>
    <vehicle id="254" depart="711.20">
        <route edges="gneE10 gneE3 gneE1 gneE4 gneE2"/>
    </vehicle>
    <vehicle id="255" depart="714.00">
        <route edges="gneE13 gneE2"/>
    </vehicle>
    <vehicle id="256" depart="716.80">
        <route edges="gneE10 gneE3 gneE1"/>
    </vehicle>
    <vehicle id="257" depart="719.60">
        <route edges="gneE10 gneE3 gneE1 gneE4"/>
    </vehicle>
    <vehicle id="258" depart="722.40">
        <route edges="gneE11 gneE1 gneE4 gneE2"/>
    </vehicle>
    <vehicle id="259" depart="725.20">
        <route edges="gneE10 gneE3"/>
    </vehicle>
    <vehicle id="260" depart="728.00">
        <route edges="gneE11 gneE1 gneE4 gneE2"/>
    </vehicle>
    <vehicle id="261" depart="730.80">
        <route edges="gneE11 gneE1 gneE4 gneE2"/>
    </vehicle>
    <vehicle id="262" depart="733.60">
        <route edges="gneE10 gneE3 gneE1 gneE4 gneE2"/>
    </vehicle>
    <vehicle id="263" depart="736.40">
        <route edges="gneE10 gneE3"/>
    </vehicle>
    <vehicle id="264" depart="739.20">
        <route edges="gneE11 gneE1 gneE4 gneE2"/>
    </vehicle>
    <vehicle id="265" depart="742.00">
        <route edges="gneE12 gneE4 gneE2"/>
    </vehicle>
    <vehicle id="266" depart="744.80">
        <route edges="gneE4 gneE2"/>
    </vehicle>
    <vehicle id="267" depart="747.60">
        <route edges="gneE12 gneE4 gneE2"/>
    </vehicle>
    <vehicle id="268" depart="750.40">
        <route edges="gneE12 gneE4 gneE2"/>
    </vehicle>
    <vehicle id="269" depart="753.20">
        <route edges="gneE11 gneE1 gneE4 gneE2"/>
    </vehicle>
    <vehicle id="270" depart="756.00">
        <route edges="gneE1 gneE4 gneE2"/>
    </vehicle>
    <vehicle id="271" depart="758.80">
        <route edges="gneE11 gneE1 gneE4 gneE2"/>
    </vehicle>
    <vehicle id="272" depart="761.60">
        <route edges="gneE12 gneE4 gneE2"/>
    </vehicle>
    <vehicle id="273" depart="764.40">
        <route edges="gneE12 gneE4 gneE2"/>
    </vehicle>
    <vehicle id="274" depart="767.20">
        <route edges="gneE13 gneE2"/>
    </vehicle>
    <vehicle id="275" depart="770.00">
        <route edges="gneE13 gneE2"/>
    </vehicle>
    <vehicle id="276" depart="772.80">
        <route edges="gneE11 gneE1 gneE4 gneE2"/>
    </vehicle>
    <vehicle id="277" depart="775.60">
        <route edges="gneE0 gneE3 gneE1 gneE4 gneE2"/>
    </vehicle>
    <vehicle id="278" depart="778.40">
        <route edges="gneE0 gneE3 gneE1"/>
    </vehicle>
    <vehicle id="279" depart="781.20">
        <route edges="gneE0 gneE3 gneE1 gneE4 gneE2"/>
    </vehicle>
    <vehicle id="280" depart="784.00">
        <route edges="gneE11 gneE1 gneE4 gneE2"/>
    </vehicle>
    <vehicle id="281" depart="786.80">
        <route edges="gneE12 gneE4 gneE2"/>
    </vehicle>
    <vehicle id="282" depart="789.60">
        <route edges="gneE13 gneE2"/>
    </vehicle>
    <vehicle id="283" depart="792.40">
        <route edges="gneE13 gneE2"/>
    </vehicle>
    <vehicle id="284" depart="795.20">
        <route edges="gneE10 gneE3 gneE1 gneE4 gneE2"/>
    </vehicle>
    <vehicle id="285" depart="798.00">
        <route edges="gneE13 gneE2"/>
    </vehicle>
    <vehicle id="286" depart="800.80">
        <route edges="gneE12 gneE4 gneE2"/>
    </vehicle>
    <vehicle id="287" depart="803.60">
        <route edges="gneE0 gneE3 gneE1 gneE4 gneE2"/>
    </vehicle>
    <vehicle id="288" depart="806.40">
        <route edges="gneE12 gneE4 gneE2"/>
    </vehicle>
    <vehicle id="289" depart="809.20">
        <route edges="gneE11 gneE1 gneE4 gneE2"/>
    </vehicle>
    <vehicle id="291" depart="814.80">
        <route edges="gneE0 gneE3 gneE1 gneE4 gneE2"/>
    </vehicle>
    <vehicle id="292" depart="817.60">
        <route edges="gneE13 gneE2"/>
    </vehicle>
    <vehicle id="293" depart="820.40">
        <route edges="gneE10 gneE3 gneE1 gneE4 gneE2"/>
    </vehicle>
    <vehicle id="294" depart="823.20">
        <route edges="gneE13 gneE2"/>
    </vehicle>
    <vehicle id="297" depart="831.60">
        <route edges="gneE11 gneE1 gneE4 gneE2"/>
    </vehicle>
    <vehicle id="298" depart="834.40">
        <route edges="gneE12 gneE4 gneE2"/>
    </vehicle>
    <vehicle id="299" depart="837.20">
        <route edges="gneE12 gneE4 gneE2"/>
    </vehicle>
    <vehicle id="300" depart="840.00">
        <route edges="gneE0 gneE3 gneE1 gneE4 gneE2"/>
    </vehicle>
    <vehicle id="301" depart="842.80">
        <route edges="gneE0 gneE3 gneE1 gneE4 gneE2"/>
    </vehicle>
    <vehicle id="302" depart="845.60">
        <route edges="gneE0 gneE3 gneE1 gneE4 gneE2"/>
    </vehicle>
    <vehicle id="304" depart="851.20">
        <route edges="gneE12 gneE4 gneE2"/>
    </vehicle>
    <vehicle id="305" depart="854.00">