<?xml version="1.0" encoding="UTF-8"?>

<!-- generated on Sun Sep 23 20:28:35 2018 by SUMO duarouter Version 0.30.0
<?xml version="1.0" encoding="UTF-8"?>

<configuration xmlns:xsi="http://www.w3.org/2001/XMLSchema-instance" xsi:noNamespaceSchemaLocation="http://sumo.dlr.de/xsd/duarouterConfiguration.xsd">

    <input>
        <net-file value="principal/principal.net.xml"/>
        <route-files value="trips.trips.xml"/>
    </input>

    <output>
        <output-file value="principal/route/principal-2.6-1.rou.xml"/>
    </output>

    <processing>
        <ignore-errors value="true"/>
    </processing>

    <time>
        <begin value="0.0"/>
        <end value="5400.0"/>
    </time>

    <report>
        <no-warnings value="true"/>
        <no-step-log value="true"/>
    </report>

</configuration>
-->

<routes xmlns:xsi="http://www.w3.org/2001/XMLSchema-instance" xsi:noNamespaceSchemaLocation="http://sumo.dlr.de/xsd/routes_file.xsd">
    <vehicle id="1" depart="2.60">
        <route edges="gneE12 gneE4 gneE2"/>
    </vehicle>
    <vehicle id="2" depart="5.20">
        <route edges="gneE10 gneE3 gneE1 gneE4 gneE2"/>
    </vehicle>
    <vehicle id="3" depart="7.80">
        <route edges="gneE10 gneE3 gneE1 gneE4 gneE2"/>
    </vehicle>
    <vehicle id="4" depart="10.40">
        <route edges="gneE10 gneE3"/>
    </vehicle>
    <vehicle id="5" depart="13.00">
        <route edges="gneE1 gneE4 gneE2"/>
    </vehicle>
    <vehicle id="6" depart="15.60">
        <route edges="gneE0 gneE3 gneE1 gneE4 gneE2"/>
    </vehicle>
    <vehicle id="7" depart="18.20">
        <route edges="gneE0 gneE3 gneE1 gneE4 gneE2"/>
    </vehicle>
    <vehicle id="8" depart="20.80">
        <route edges="gneE10 gneE3 gneE1 gneE4 gneE2"/>
    </vehicle>
    <vehicle id="9" depart="23.40">
        <route edges="gneE11 gneE1 gneE4 gneE2"/>
    </vehicle>
    <vehicle id="10" depart="26.00">
        <route edges="gneE11 gneE1 gneE4 gneE2"/>
    </vehicle>
    <vehicle id="11" depart="28.60">
        <route edges="gneE13 gneE2"/>
    </vehicle>
    <vehicle id="12" depart="31.20">
        <route edges="gneE11 gneE1 gneE4 gneE2"/>
    </vehicle>
    <vehicle id="13" depart="33.80">
        <route edges="gneE12 gneE4 gneE2"/>
    </vehicle>
    <vehicle id="14" depart="36.40">
        <route edges="gneE10 gneE3 gneE1 gneE4 gneE2"/>
    </vehicle>
    <vehicle id="15" depart="39.00">
        <route edges="gneE13 gneE2"/>
    </vehicle>
    <vehicle id="16" depart="41.60">
        <route edges="gneE1 gneE4 gneE2"/>
    </vehicle>
    <vehicle id="17" depart="44.20">
        <route edges="gneE10 gneE3"/>
    </vehicle>
    <vehicle id="18" depart="46.80">
        <route edges="gneE12 gneE4 gneE2"/>
    </vehicle>
    <vehicle id="19" depart="49.40">
        <route edges="gneE13 gneE2"/>
    </vehicle>
    <vehicle id="20" depart="52.00">
        <route edges="gneE11 gneE1 gneE4 gneE2"/>
    </vehicle>
    <vehicle id="21" depart="54.60">
        <route edges="gneE13 gneE2"/>
    </vehicle>
    <vehicle id="22" depart="57.20">
        <route edges="gneE0 gneE3 gneE1 gneE4 gneE2"/>
    </vehicle>
    <vehicle id="23" depart="59.80">
        <route edges="gneE0 gneE3 gneE1 gneE4 gneE2"/>
    </vehicle>
    <vehicle id="24" depart="62.40">
        <route edges="gneE12 gneE4 gneE2"/>
    </vehicle>
    <vehicle id="25" depart="65.00">
        <route edges="gneE11 gneE1 gneE4 gneE2"/>
    </vehicle>
    <vehicle id="26" depart="67.60">
        <route edges="gneE10 gneE3 gneE1 gneE4 gneE2"/>
    </vehicle>
    <vehicle id="27" depart="70.20">
        <route edges="gneE0 gneE3 gneE1 gneE4 gneE2"/>
    </vehicle>
    <vehicle id="28" depart="72.80">
        <route edges="gneE11 gneE1 gneE4 gneE2"/>
    </vehicle>
    <vehicle id="29" depart="75.40">
        <route edges="gneE0 gneE3 gneE1 gneE4 gneE2"/>
    </vehicle>
    <vehicle id="30" depart="78.00">
        <route edges="gneE0 gneE3 gneE1 gneE4 gneE2"/>
    </vehicle>
    <vehicle id="31" depart="80.60">
        <route edges="gneE1 gneE4"/>
    </vehicle>
    <vehicle id="32" depart="83.20">
        <route edges="gneE12 gneE4 gneE2"/>
    </vehicle>
    <vehicle id="33" depart="85.80">
        <route edges="gneE0 gneE3 gneE1 gneE4 gneE2"/>
    </vehicle>
    <vehicle id="34" depart="88.40">
        <route edges="gneE12 gneE4 gneE2"/>
    </vehicle>
    <vehicle id="35" depart="91.00">
        <route edges="gneE11 gneE1 gneE4 gneE2"/>
    </vehicle>
    <vehicle id="36" depart="93.60">
        <route edges="gneE0 gneE3 gneE1 gneE4 gneE2"/>
    </vehicle>
    <vehicle id="37" depart="96.20">
        <route edges="gneE11 gneE1"/>
    </vehicle>
    <vehicle id="38" depart="98.80">
        <route edges="gneE11 gneE1 gneE4 gneE2"/>
    </vehicle>
    <vehicle id="39" depart="101.40">
        <route edges="gneE11 gneE1 gneE4 gneE2"/>
    </vehicle>
    <vehicle id="40" depart="104.00">
        <route edges="gneE11 gneE1"/>
    </vehicle>
    <vehicle id="41" depart="106.60">
        <route edges="gneE12 gneE4 gneE2"/>
    </vehicle>
    <vehicle id="42" depart="109.20">
        <route edges="gneE13 gneE2"/>
    </vehicle>
    <vehicle id="43" depart="111.80">
        <route edges="gneE11 gneE1 gneE4 gneE2"/>
    </vehicle>
    <vehicle id="44" depart="114.40">
        <route edges="gneE13 gneE2"/>
    </vehicle>
    <vehicle id="45" depart="117.00">
        <route edges="gneE0 gneE3 gneE1 gneE4 gneE2"/>
    </vehicle>
    <vehicle id="46" depart="119.60">
        <route edges="gneE3 gneE1 gneE4 gneE2"/>
    </vehicle>
    <vehicle id="47" depart="122.20">
        <route edges="gneE11 gneE1"/>
    </vehicle>
    <vehicle id="48" depart="124.80">
        <route edges="gneE0 gneE3 gneE1 gneE4 gneE2"/>
    </vehicle>
    <vehicle id="49" depart="127.40">
        <route edges="gneE13 gneE2"/>
    </vehicle>
    <vehicle id="50" depart="130.00">
        <route edges="gneE0 gneE3 gneE1 gneE4"/>
    </vehicle>
    <vehicle id="51" depart="132.60">
        <route edges="gneE12 gneE4"/>
    </vehicle>
    <vehicle id="53" depart="137.80">
        <route edges="gneE11 gneE1 gneE4 gneE2"/>
    </vehicle>
    <vehicle id="54" depart="140.40">
        <route edges="gneE11 gneE1 gneE4 gneE2"/>
    </vehicle>
    <vehicle id="55" depart="143.00">
        <route edges="gneE0 gneE3 gneE1"/>
    </vehicle>
    <vehicle id="56" depart="145.60">
        <route edges="gneE3 gneE1 gneE4 gneE2"/>
    </vehicle>
    <vehicle id="58" depart="150.80">
        <route edges="gneE10 gneE3 gneE1 gneE4 gneE2"/>
    </vehicle>
    <vehicle id="59" depart="153.40">
        <route edges="gneE11 gneE1 gneE4 gneE2"/>
    </vehicle>
    <vehicle id="60" depart="156.00">
        <route edges="gneE11 gneE1 gneE4 gneE2"/>
    </vehicle>
    <vehicle id="61" depart="158.60">
        <route edges="gneE11 gneE1"/>
    </vehicle>
    <vehicle id="62" depart="161.20">
        <route edges="gneE11 gneE1"/>
    </vehicle>
    <vehicle id="63" depart="163.80">
        <route edges="gneE11 gneE1 gneE4 gneE2"/>
    </vehicle>
    <vehicle id="64" depart="166.40">
        <route edges="gneE11 gneE1 gneE4 gneE2"/>
    </vehicle>
    <vehicle id="65" depart="169.00">
        <route edges="gneE10 gneE3 gneE1 gneE4 gneE2"/>
    </vehicle>
    <vehicle id="66" depart="171.60">
        <route edges="gneE0 gneE3 gneE1 gneE4 gneE2"/>
    </vehicle>
    <vehicle id="67" depart="174.20">
        <route edges="gneE13 gneE2"/>
    </vehicle>
    <vehicle id="68" depart="176.80">
        <route edges="gneE11 gneE1 gneE4"/>
    </vehicle>
    <vehicle id="69" depart="179.40">
        <route edges="gneE4 gneE2"/>
    </vehicle>
    <vehicle id="70" depart="182.00">
        <route edges="gneE13 gneE2"/>
    </vehicle>
    <vehicle id="71" depart="184.60">
        <route edges="gneE13 gneE2"/>
    </vehicle>
    <vehicle id="72" depart="187.20">
        <route edges="gneE10 gneE3 gneE1 gneE4 gneE2"/>
    </vehicle>
    <vehicle id="73" depart="189.80">
        <route edges="gneE0 gneE3 gneE1 gneE4 gneE2"/>
    </vehicle>
    <vehicle id="74" depart="192.40">
        <route edges="gneE10 gneE3 gneE1 gneE4 gneE2"/>
    </vehicle>
    <vehicle id="75" depart="195.00">
        <route edges="gneE12 gneE4 gneE2"/>
    </vehicle>
    <vehicle id="76" depart="197.60">
        <route edges="gneE0 gneE3 gneE1 gneE4 gneE2"/>
    </vehicle>
    <vehicle id="77" depart="200.20">
        <route edges="gneE12 gneE4 gneE2"/>
    </vehicle>
    <vehicle id="78" depart="202.80">
        <route edges="gneE12 gneE4 gneE2"/>
    </vehicle>
    <vehicle id="79" depart="205.40">
        <route edges="gneE12 gneE4 gneE2"/>
    </vehicle>
    <vehicle id="80" depart="208.00">
        <route edges="gneE11 gneE1 gneE4 gneE2"/>
    </vehicle>
    <vehicle id="81" depart="210.60">
        <route edges="gneE10 gneE3 gneE1 gneE4 gneE2"/>
    </vehicle>
    <vehicle id="82" depart="213.20">
        <route edges="gneE10 gneE3 gneE1 gneE4 gneE2"/>
    </vehicle>
    <vehicle id="83" depart="215.80">
        <route edges="gneE11 gneE1"/>
    </vehicle>
    <vehicle id="84" depart="218.40">
        <route edges="gneE0 gneE3 gneE1 gneE4 gneE2"/>
    </vehicle>
    <vehicle id="85" depart="221.00">
        <route edges="gneE11 gneE1 gneE4 gneE2"/>
    </vehicle>
    <vehicle id="86" depart="223.60">
        <route edges="gneE3 gneE1 gneE4 gneE2"/>
    </vehicle>
    <vehicle id="87" depart="226.20">
        <route edges="gneE0 gneE3 gneE1 gneE4 gneE2"/>
    </vehicle>
    <vehicle id="88" depart="228.80">
        <route edges="gneE13 gneE2"/>
    </vehicle>
    <vehicle id="89" depart="231.40">
        <route edges="gneE12 gneE4 gneE2"/>
    </vehicle>
    <vehicle id="90" depart="234.00">
        <route edges="gneE13 gneE2"/>
    </vehicle>
    <vehicle id="91" depart="236.60">
        <route edges="gneE13 gneE2"/>
    </vehicle>
    <vehicle id="92" depart="239.20">
        <route edges="gneE13 gneE2"/>
    </vehicle>
    <vehicle id="93" depart="241.80">
        <route edges="gneE3 gneE1 gneE4 gneE2"/>
    </vehicle>
    <vehicle id="94" depart="244.40">
        <route edges="gneE11 gneE1 gneE4 gneE2"/>
    </vehicle>
    <vehicle id="95" depart="247.00">
        <route edges="gneE12 gneE4 gneE2"/>
    </vehicle>
    <vehicle id="96" depart="249.60">
        <route edges="gneE12 gneE4 gneE2"/>
    </vehicle>
    <vehicle id="97" depart="252.20">
        <route edges="gneE13 gneE2"/>
    </vehicle>
    <vehicle id="98" depart="254.80">
        <route edges="gneE0 gneE3 gneE1 gneE4 gneE2"/>
    </vehicle>
    <vehicle id="99" depart="257.40">
        <route edges="gneE11 gneE1 gneE4"/>
    </vehicle>
    <vehicle id="100" depart="260.00">
        <route edges="gneE13 gneE2"/>
    </vehicle>
    <vehicle id="101" depart="262.60">
        <route edges="gneE12 gneE4"/>
    </vehicle>
    <vehicle id="102" depart="265.20">
        <route edges="gneE1 gneE4"/>
    </vehicle>
    <vehicle id="103" depart="267.80">
        <route edges="gneE0 gneE3 gneE1"/>
    </vehicle>
    <vehicle id="104" depart="270.40">
        <route edges="gneE11 gneE1 gneE4 gneE2"/>
    </vehicle>
    <vehicle id="105" depart="273.00">
        <route edges="gneE10 gneE3 gneE1 gneE4 gneE2"/>
    </vehicle>
    <vehicle id="106" depart="275.60">
        <route edges="gneE13 gneE2"/>
    </vehicle>
    <vehicle id="107" depart="278.20">
        <route edges="gneE10 gneE3 gneE1 gneE4 gneE2"/>
    </vehicle>
    <vehicle id="108" depart="280.80">
        <route edges="gneE0 gneE3 gneE1 gneE4 gneE2"/>
    </vehicle>
    <vehicle id="109" depart="283.40">
        <route edges="gneE0 gneE3 gneE1"/>
    </vehicle>
    <vehicle id="110" depart="286.00">
        <route edges="gneE0 gneE3 gneE1 gneE4 gneE2"/>
    </vehicle>
    <vehicle id="111" depart="288.60">
        <route edges="gneE11 gneE1 gneE4"/>
    </vehicle>
    <vehicle id="112" depart="291.20">
        <route edges="gneE0 gneE3"/>
    </vehicle>
    <vehicle id="113" depart="293.80">
        <route edges="gneE12 gneE4"/>
    </vehicle>
    <vehicle id="114" depart="296.40">
        <route edges="gneE10 gneE3 gneE1 gneE4 gneE2"/>
    </vehicle>
    <vehicle id="115" depart="299.00">
        <route edges="gneE12 gneE4 gneE2"/>
    </vehicle>
    <vehicle id="116" depart="301.60">
        <route edges="gneE12 gneE4 gneE2"/>
    </vehicle>
    <vehicle id="117" depart="304.20">
        <route edges="gneE0 gneE3 gneE1"/>
    </vehicle>
    <vehicle id="118" depart="306.80">
        <route edges="gneE10 gneE3 gneE1 gneE4 gneE2"/>
    </vehicle>
    <vehicle id="119" depart="309.40">
        <route edges="gneE11 gneE1 gneE4 gneE2"/>
    </vehicle>
    <vehicle id="120" depart="312.00">
        <route edges="gneE12 gneE4 gneE2"/>
    </vehicle>
    <vehicle id="121" depart="314.60">
        <route edges="gneE0 gneE3"/>
    </vehicle>
    <vehicle id="122" depart="317.20">
        <route edges="gneE12 gneE4 gneE2"/>
    </vehicle>
    <vehicle id="123" depart="319.80">
        <route edges="gneE13 gneE2"/>
    </vehicle>
    <vehicle id="124" depart="322.40">
        <route edges="gneE10 gneE3 gneE1 gneE4 gneE2"/>
    </vehicle>
    <vehicle id="125" depart="325.00">
        <route edges="gneE10 gneE3 gneE1 gneE4"/>
    </vehicle>
    <vehicle id="126" depart="327.60">
        <route edges="gneE10 gneE3 gneE1 gneE4 gneE2"/>
    </vehicle>
    <vehicle id="127" depart="330.20">
        <route edges="gneE0 gneE3 gneE1"/>
    </vehicle>
    <vehicle id="128" depart="332.80">
        <route edges="gneE10 gneE3 gneE1 gneE4 gneE2"/>
    </vehicle>
    <vehicle id="129" depart="335.40">
        <route edges="gneE12 gneE4 gneE2"/>
    </vehicle>
    <vehicle id="130" depart="338.00">
        <route edges="gneE12 gneE4 gneE2"/>
    </vehicle>
    <vehicle id="131" depart="340.60">
        <route edges="gneE12 gneE4 gneE2"/>
    </vehicle>
    <vehicle id="132" depart="343.20">
        <route edges="gneE0 gneE3 gneE1 gneE4 gneE2"/>
    </vehicle>
    <vehicle id="133" depart="345.80">
        <route edges="gneE13 gneE2"/>
    </vehicle>
    <vehicle id="134" depart="348.40">
        <route edges="gneE13 gneE2"/>
    </vehicle>
    <vehicle id="135" depart="351.00">
        <route edges="gneE0 gneE3"/>
    </vehicle>
    <vehicle id="136" depart="353.60">
        <route edges="gneE13 gneE2"/>
    </vehicle>
    <vehicle id="137" depart="356.20">
        <route edges="gneE0 gneE3 gneE1 gneE4 gneE2"/>
    </vehicle>
    <vehicle id="138" depart="358.80">
        <route edges="gneE11 gneE1 gneE4 gneE2"/>
    </vehicle>
    <vehicle id="139" depart="361.40">
        <route edges="gneE11 gneE1 gneE4"/>
    </vehicle>
    <vehicle id="140" depart="364.00">
        <route edges="gneE3 gneE1 gneE4 gneE2"/>
    </vehicle>
    <vehicle id="141" depart="366.60">
        <route edges="gneE12 gneE4 gneE2"/>
    </vehicle>
    <vehicle id="142" depart="369.20">
        <route edges="gneE12 gneE4 gneE2"/>
    </vehicle>
    <vehicle id="143" depart="371.80">
        <route edges="gneE11 gneE1 gneE4 gneE2"/>
    </vehicle>
    <vehicle id="144" depart="374.40">
        <route edges="gneE10 gneE3 gneE1 gneE4 gneE2"/>
    </vehicle>
    <vehicle id="145" depart="377.00">
        <route edges="gneE11 gneE1"/>
    </vehicle>
    <vehicle id="146" depart="379.60">
        <route edges="gneE13 gneE2"/>
    </vehicle>
    <vehicle id="147" depart="382.20">
        <route edges="gneE0 gneE3 gneE1 gneE4 gneE2"/>
    </vehicle>
    <vehicle id="148" depart="384.80">
        <route edges="gneE11 gneE1 gneE4 gneE2"/>
    </vehicle>
    <vehicle id="149" depart="387.40">
        <route edges="gneE0 gneE3 gneE1 gneE4 gneE2"/>
    </vehicle>
    <vehicle id="150" depart="390.00">
        <route edges="gneE10 gneE3 gneE1 gneE4 gneE2"/>
    </vehicle>
    <vehicle id="151" depart="392.60">
        <route edges="gneE11 gneE1 gneE4 gneE2"/>
    </vehicle>
    <vehicle id="152" depart="395.20">
        <route edges="gneE12 gneE4 gneE2"/>
    </vehicle>
    <vehicle id="153" depart="397.80">
        <route edges="gneE11 gneE1 gneE4 gneE2"/>
    </vehicle>
    <vehicle id="154" depart="400.40">
        <route edges="gneE13 gneE2"/>
    </vehicle>
    <vehicle id="155" depart="403.00">
        <route edges="gneE10 gneE3 gneE1"/>
    </vehicle>
    <vehicle id="157" depart="408.20">
        <route edges="gneE1 gneE4 gneE2"/>
    </vehicle>
    <vehicle id="158" depart="410.80">
        <route edges="gneE0 gneE3 gneE1 gneE4 gneE2"/>
    </vehicle>
    <vehicle id="159" depart="413.40">
        <route edges="gneE12 gneE4 gneE2"/>
    </vehicle>
    <vehicle id="160" depart="416.00">
        <route edges="gneE12 gneE4 gneE2"/>
    </vehicle>
    <vehicle id="161" depart="418.60">
        <route edges="gneE10 gneE3 gneE1 gneE4 gneE2"/>
    </vehicle>
    <vehicle id="162" depart="421.20">
        <route edges="gneE13 gneE2"/>
    </vehicle>
    <vehicle id="163" depart="423.80">
        <route edges="gneE0 gneE3 gneE1 gneE4 gneE2"/>
    </vehicle>
    <vehicle id="164" depart="426.40">
        <route edges="gneE10 gneE3 gneE1 gneE4 gneE2"/>
    </vehicle>
    <vehicle id="165" depart="429.00">
        <route edges="gneE12 gneE4 gneE2"/>
    </vehicle>
    <vehicle id="166" depart="431.60">
        <route edges="gneE13 gneE2"/>
    </vehicle>
    <vehicle id="167" depart="434.20">
        <route edges="gneE12 gneE4 gneE2"/>
    </vehicle>
    <vehicle id="168" depart="436.80">
        <route edges="gneE0 gneE3 gneE1 gneE4 gneE2"/>
    </vehicle>
    <vehicle id="169" depart="439.40">
        <route edges="gneE10 gneE3 gneE1 gneE4 gneE2"/>
    </vehicle>
    <vehicle id="170" depart="442.00">
        <route edges="gneE11 gneE1 gneE4 gneE2"/>
    </vehicle>
    <vehicle id="171" depart="444.60">
        <route edges="gneE0 gneE3 gneE1 gneE4 gneE2"/>
    </vehicle>
    <vehicle id="172" depart="447.20">
        <route edges="gneE13 gneE2"/>
    </vehicle>
    <vehicle id="173" depart="449.80">
        <route edges="gneE0 gneE3 gneE1 gneE4 gneE2"/>
    </vehicle>
    <vehicle id="174" depart="452.40">
        <route edges="gneE13 gneE2"/>
    </vehicle>
    <vehicle id="175" depart="455.00">
        <route edges="gneE10 gneE3 gneE1 gneE4"/>
    </vehicle>
    <vehicle id="176" depart="457.60">
        <route edges="gneE0 gneE3 gneE1"/>
    </vehicle>
    <vehicle id="177" depart="460.20">
        <route edges="gneE0 gneE3 gneE1 gneE4 gneE2"/>
    </vehicle>
    <vehicle id="178" depart="462.80">
        <route edges="gneE13 gneE2"/>
    </vehicle>
    <vehicle id="179" depart="465.40">
        <route edges="gneE11 gneE1 gneE4 gneE2"/>
    </vehicle>
    <vehicle id="180" depart="468.00">
        <route edges="gneE0 gneE3 gneE1 gneE4 gneE2"/>
    </vehicle>
    <vehicle id="181" depart="470.60">
        <route edges="gneE0 gneE3 gneE1 gneE4 gneE2"/>
    </vehicle>
    <vehicle id="182" depart="473.20">
        <route edges="gneE0 gneE3 gneE1 gneE4 gneE2"/>
    </vehicle>
    <vehicle id="183" depart="475.80">
        <route edges="gneE11 gneE1"/>
    </vehicle>
    <vehicle id="184" depart="478.40">
        <route edges="gneE10 gneE3 gneE1 gneE4 gneE2"/>
    </vehicle>
    <vehicle id="185" depart="481.00">
        <route edges="gneE12 gneE4 gneE2"/>
    </vehicle>
    <vehicle id="186" depart="483.60">
        <route edges="gneE4 gneE2"/>
    </vehicle>
    <vehicle id="187" depart="486.20">
        <route edges="gneE13 gneE2"/>
    </vehicle>
    <vehicle id="189" depart="491.40">
        <route edges="gneE0 gneE3 gneE1 gneE4 gneE2"/>
    </vehicle>
    <vehicle id="190" depart="494.00">
        <route edges="gneE10 gneE3 gneE1 gneE4 gneE2"/>
    </vehicle>
    <vehicle id="191" depart="496.60">
        <route edges="gneE0 gneE3 gneE1 gneE4 gneE2"/>
    </vehicle>
    <vehicle id="192" depart="499.20">
        <route edges="gneE12 gneE4 gneE2"/>
    </vehicle>
    <vehicle id="193" depart="501.80">
        <route edges="gneE10 gneE3 gneE1 gneE4 gneE2"/>
    </vehicle>
    <vehicle id="194" depart="504.40">
        <route edges="gneE11 gneE1 gneE4 gneE2"/>
    </vehicle>
    <vehicle id="195" depart="507.00">
        <route edges="gneE0 gneE3"/>
    </vehicle>
    <vehicle id="196" depart="509.60">
        <route edges="gneE10 gneE3"/>
    </vehicle>
    <vehicle id="197" depart="512.20">
        <route edges="gneE12 gneE4 gneE2"/>
    </vehicle>
    <vehicle id="198" depart="514.80">
        <route edges="gneE1 gneE4 gneE2"/>
    </vehicle>
    <vehicle id="199" depart="517.40">
        <route edges="gneE10 gneE3 gneE1 gneE4 gneE2"/>
    </vehicle>
    <vehicle id="200" depart="520.00">
        <route edges="gneE13 gneE2"/>
    </vehicle>
    <vehicle id="201" depart="522.60">
        <route edges="gneE12 gneE4 gneE2"/>
    </vehicle>
    <vehicle id="202" depart="525.20">
        <route edges="gneE13 gneE2"/>
    </vehicle>
    <vehicle id="203" depart="527.80">
        <route edges="gneE12 gneE4 gneE2"/>
    </vehicle>
    <vehicle id="204" depart="530.40">
        <route edges="gneE4 gneE2"/>
    </vehicle>
    <vehicle id="205" depart="533.00">
        <route edges="gneE11 gneE1 gneE4 gneE2"/>
    </vehicle>
    <vehicle id="206" depart="535.60">
        <route edges="gneE11 gneE1 gneE4 gneE2"/>
    </vehicle>
    <vehicle id="207" depart="538.20">
        <route edges="gneE12 gneE4 gneE2"/>
    </vehicle>
    <vehicle id="208" depart="540.80">
        <route edges="gneE1 gneE4 gneE2"/>
    </vehicle>
    <vehicle id="209" depart="543.40">
        <route edges="gneE11 gneE1 gneE4 gneE2"/>
    </vehicle>
    <vehicle id="210" depart="546.00">
        <route edges="gneE10 gneE3 gneE1 gneE4 gneE2"/>
    </vehicle>
    <vehicle id="211" depart="548.60">
        <route edges="gneE13 gneE2"/>
    </vehicle>
    <vehicle id="212" depart="551.20">
        <route edges="gneE12 gneE4 gneE2"/>
    </vehicle>
    <vehicle id="213" depart="553.80">
        <route edges="gneE10 gneE3 gneE1 gneE4 gneE2"/>
    </vehicle>
    <vehicle id="214" depart="556.40">
        <route edges="gneE0 gneE3 gneE1 gneE4 gneE2"/>
    </vehicle>
    <vehicle id="215" depart="559.00">
        <route edges="gneE10 gneE3 gneE1 gneE4 gneE2"/>
    </vehicle>
    <vehicle id="216" depart="561.60">
        <route edges="gneE4 gneE2"/>
    </vehicle>
    <vehicle id="217" depart="564.20">
        <route edges="gneE11 gneE1 gneE4 gneE2"/>
    </vehicle>
    <vehicle id="218" depart="566.80">
        <route edges="gneE12 gneE4 gneE2"/>
    </vehicle>
    <vehicle id="219" depart="569.40">
        <route edges="gneE0 gneE3 gneE1 gneE4 gneE2"/>
    </vehicle>
    <vehicle id="220" depart="572.00">
        <route edges="gneE11 gneE1 gneE4 gneE2"/>
    </vehicle>
    <vehicle id="222" depart="577.20">
        <route edges="gneE12 gneE4 gneE2"/>
    </vehicle>
    <vehicle id="223" depart="579.80">
        <route edges="gneE10 gneE3"/>
    </vehicle>
    <vehicle id="224" depart="582.40">
        <route edges="gneE13 gneE2"/>
    </vehicle>
    <vehicle id="225" depart="585.00">
        <route edges="gneE10 gneE3 gneE1 gneE4 gneE2"/>
    </vehicle>
    <vehicle id="226" depart="587.60">
        <route edges="gneE12 gneE4 gneE2"/>
    </vehicle>
    <vehicle id="227" depart="590.20">
        <route edges="gneE10 gneE3 gneE1 gneE4 gneE2"/>
    </vehicle>
    <vehicle id="228" depart="592.80">
        <route edges="gneE0 gneE3 gneE1 gneE4 gneE2"/>
    </vehicle>
    <vehicle id="229" depart="595.40">
        <route edges="gneE0 gneE3 gneE1 gneE4 gneE2"/>
    </vehicle>
    <vehicle id="230" depart="598.00">
        <route edges="gneE12 gneE4 gneE2"/>
    </vehicle>
    <vehicle id="231" depart="600.60">
        <route edges="gneE13 gneE2"/>
    </vehicle>
    <vehicle id="232" depart="603.20">
        <route edges="gneE10 gneE3 gneE1 gneE4 gneE2"/>
    </vehicle>
    <vehicle id="233" depart="605.80">
        <route edges="gneE13 gneE2"/>
    </vehicle>
    <vehicle id="234" depart="608.40">
        <route edges="gneE0 gneE3 gneE1 gneE4 gneE2"/>
    </vehicle>
    <vehicle id="235" depart="611.00">
        <route edges="gneE10 gneE3 gneE1 gneE4 gneE2"/>
    </vehicle>
    <vehicle id="236" depart="613.60">
        <route edges="gneE11 gneE1 gneE4 gneE2"/>
    </vehicle>
    <vehicle id="237" depart="616.20">
        <route edges="gneE13 gneE2"/>
    </vehicle>
    <vehicle id="238" depart="618.80">
        <route edges="gneE10 gneE3 gneE1 gneE4 gneE2"/>
    </vehicle>
    <vehicle id="239" depart="621.40">
        <route edges="gneE11 gneE1 gneE4 gneE2"/>
    </vehicle>
    <vehicle id="240" depart="624.00">
        <route edges="gneE12 gneE4 gneE2"/>
    </vehicle>
    <vehicle id="241" depart="626.60">
        <route edges="gneE10 gneE3 gneE1 gneE4 gneE2"/>
    </vehicle>
    <vehicle id="242" depart="629.20">
        <route edges="gneE12 gneE4 gneE2"/>
    </vehicle>
    <vehicle id="243" depart="631.80">
        <route edges="gneE12 gneE4"/>
    </vehicle>
    <vehicle id="244" depart="634.40">
        <route edges="gneE10 gneE3 gneE1 gneE4 gneE2"/>
    </vehicle>
    <vehicle id="245" depart="637.00">
        <route edges="gneE0 gneE3 gneE1 gneE4 gneE2"/>
    </vehicle>
    <vehicle id="246" depart="639.60">
        <route edges="gneE12 gneE4 gneE2"/>
    </vehicle>
    <vehicle id="247" depart="642.20">
        <route edges="gneE12 gneE4 gneE2"/>
    </vehicle>
    <vehicle id="248" depart="644.80">
        <route edges="gneE13 gneE2"/>
    </vehicle>
    <vehicle id="249" depart="647.40">
        <route edges="gneE10 gneE3 gneE1 gneE4 gneE2"/>
    </vehicle>
    <vehicle id="250" depart="650.00">
        <route edges="gneE0 gneE3 gneE1 gneE4 gneE2"/>
    </vehicle>
    <vehicle id="251" depart="652.60">
        <route edges="gneE1 gneE4 gneE2"/>
    </vehicle>
    <vehicle id="252" depart="655.20">
        <route edges="gneE0 gneE3 gneE1 gneE4 gneE2"/>
    </vehicle>
    <vehicle id="253" depart="657.80">
        <route edges="gneE13 gneE2"/>
    </vehicle>
    <vehicle id="254" depart="660.40">
        <route edges="gneE12 gneE4 gneE2"/>
    </vehicle>
    <vehicle id="255" depart="663.00">
        <route edges="gneE10 gneE3 gneE1 gneE4 gneE2"/>
    </vehicle>
    <vehicle id="256" depart="665.60">
        <route edges="gneE10 gneE3 gneE1 gneE4 gneE2"/>
    </vehicle>
    <vehicle id="257" depart="668.20">
        <route edges="gneE13 gneE2"/>
    </vehicle>
    <vehicle id="258" depart="670.80">
        <route edges="gneE0 gneE3 gneE1 gneE4 gneE2"/>
    </vehicle>
    <vehicle id="259" depart="673.40">
        <route edges="gneE11 gneE1 gneE4 gneE2"/>
    </vehicle>
    <vehicle id="260" depart="676.00">
        <route edges="gneE13 gneE2"/>
    </vehicle>
    <vehicle id="261" depart="678.60">
        <route edges="gneE12 gneE4 gneE2"/>
    </vehicle>
    <vehicle id="263" depart="683.80">
        <route edges="gneE10 gneE3 gneE1 gneE4 gneE2"/>
    </vehicle>
    <vehicle id="264" depart="686.40">
        <route edges="gneE13 gneE2"/>
    </vehicle>
    <vehicle id="265" depart="689.00">
        <route edges="gneE12 gneE4"/>
    </vehicle>
    <vehicle id="266" depart="691.60">
        <route edges="gneE13 gneE2"/>
    </vehicle>
    <vehicle id="267" depart="694.20">
        <route edges="gneE10 gneE3 gneE1 gneE4 gneE2"/>
    </vehicle>
    <vehicle id="268" depart="696.80">
        <route edges="gneE13 gneE2"/>
    </vehicle>
    <vehicle id="269" depart="699.40">
        <route edges="gneE0 gneE3 gneE1 gneE4 gneE2"/>
    </vehicle>
    <vehicle id="270" depart="702.00">
        <route edges="gneE11 gneE1"/>
    </vehicle>
    <vehicle id="271" depart="704.60">
        <route edges="gneE10 gneE3 gneE1 gneE4 gneE2"/>
    </vehicle>
    <vehicle id="272" depart="707.20">
        <route edges="gneE13 gneE2"/>
    </vehicle>
    <vehicle id="273" depart="709.80">
        <route edges="gneE11 gneE1 gneE4 gneE2"/>
    </vehicle>
    <vehicle id="274" depart="712.40">
        <route edges="gneE12 gneE4 gneE2"/>
    </vehicle>
    <vehicle id="275" depart="715.00">
        <route edges="gneE0 gneE3 gneE1 gneE4 gneE2"/>
    </vehicle>
    <vehicle id="276" depart="717.60">
        <route edges="gneE3 gneE1"/>
    </vehicle>
    <vehicle id="277" depart="720.20">
        <route edges="gneE12 gneE4 gneE2"/>
    </vehicle>
    <vehicle id="279" depart="725.40">
        <route edges="gneE0 gneE3 gneE1 gneE4 gneE2"/>
    </vehicle>
    <vehicle id="280" depart="728.00">
        <route edges="gneE10 gneE3"/>
    </vehicle>
    <vehicle id="281" depart="730.60">
        <route edges="gneE12 gneE4 gneE2"/>
    </vehicle>
    <vehicle id="282" depart="733.20">
        <route edges="gneE10 gneE3 gneE1 gneE4"/>
    </vehicle>
    <vehicle id="283" depart="735.80">
        <route edges="gneE3 gneE1 gneE4 gneE2"/>
    </vehicle>
    <vehicle id="284" depart="738.40">
        <route edges="gneE11 gneE1 gneE4"/>
    </vehicle>
    <vehicle id="285" depart="741.00">
        <route edges="gneE10 gneE3 gneE1 gneE4 gneE2"/>
    </vehicle>
    <vehicle id="286" depart="743.60">
        <route edges="gneE0 gneE3 gneE1 gneE4 gneE2"/>
    </vehicle>
    <vehicle id="287" depart="746.20">
        <route edges="gneE13 gneE2"/>
    </vehicle>
    <vehicle id="288" depart="748.80">
        <route edges="gneE13 gneE2"/>
    </vehicle>
    <vehicle id="289" depart="751.40">
        <route edges="gneE11 gneE1 gneE4 gneE2"/>
    </vehicle>
    <vehicle id="290" depart="754.00">
        <route edges="gneE12 gneE4 gneE2"/>
    </vehicle>
    <vehicle id="291" depart="756.60">
        <route edges="gneE11 gneE1 gneE4 gneE2"/>
    </vehicle>
    <vehicle id="292" depart="759.20">
        <route edges="gneE13 gneE2"/>
    </vehicle>
    <vehicle id="293" depart="761.80">
        <route edges="gneE13 gneE2"/>
    </vehicle>
    <vehicle id="294" depart="764.40">
        <route edges="gneE10 gneE3 gneE1 gneE4 gneE2"/>
    </vehicle>
    <vehicle id="295" depart="767.00">
        <route edges="gneE0 gneE3 gneE1 gneE4"/>
    </vehicle>
    <vehicle id="296" depart="769.60">
        <route edges="gneE10 gneE3 gneE1 gneE4 gneE2"/>