<?xml version="1.0" encoding="UTF-8"?>

<!-- generated on Sun Oct 14 21:29:01 2018 by SUMO duarouter Version 0.30.0
<?xml version="1.0" encoding="UTF-8"?>

<configuration xmlns:xsi="http://www.w3.org/2001/XMLSchema-instance" xsi:noNamespaceSchemaLocation="http://sumo.dlr.de/xsd/duarouterConfiguration.xsd">

    <input>
        <net-file value="spider/spider.net.xml"/>
        <route-files value="trips.trips.xml"/>
    </input>

    <output>
        <output-file value="spider/route-trip/spider-2.2-0.rou.xml"/>
    </output>

    <processing>
        <ignore-errors value="true"/>
    </processing>

    <time>
        <begin value="0.0"/>
        <end value="1800.0"/>
    </time>

    <report>
        <no-warnings value="true"/>
        <no-step-log value="true"/>
    </report>

</configuration>
-->

<routes xmlns:xsi="http://www.w3.org/2001/XMLSchema-instance" xsi:noNamespaceSchemaLocation="http://sumo.dlr.de/xsd/routes_file.xsd">
    <vehicle id="0" depart="0.00">
        <route edges="gneE6 2/1to3/1 3/1to4/1 4/1to5/1"/>
    </vehicle>
    <vehicle id="1" depart="2.20">
        <route edges="gneE1 1/1to8/1 8/1to7/1 7/1to6/1"/>
    </vehicle>
    <vehicle id="2" depart="4.40">
        <route edges="gneE5 4/1to3/1 3/1to2/1"/>
    </vehicle>
    <vehicle id="3" depart="6.60">
        <route edges="gneE6 2/1to3/1 3/1to4/1 4/1to5/1 5/1to6/1 6/1to5/1"/>
    </vehicle>
    <vehicle id="4" depart="8.80">
        <route edges="gneE3 7/1to8/1 8/1to1/1"/>
    </vehicle>
    <vehicle id="5" depart="11.00">
        <route edges="gneE1 1/1to2/1 2/1to3/1 3/1to4/1 4/1to5/1"/>
    </vehicle>
    <vehicle id="6" depart="13.20">
        <route edges="gneE1 1/1to2/1 2/1to3/1 3/1to4/1 4/1to5/1 5/1to6/1"/>
    </vehicle>
    <vehicle id="7" depart="15.40">
        <route edges="gneE7 8/1to1/1 1/1to2/1 2/1to3/1 3/1to4/1"/>
    </vehicle>
    <vehicle id="8" depart="17.60">
        <route edges="gneE7 8/1to1/1 1/1to2/1 2/1to3/1 3/1to2/1"/>
    </vehicle>
    <vehicle id="9" depart="19.80">
        <route edges="gneE2 3/1to4/1 4/1to5/1 5/1to6/1"/>
    </vehicle>
    <vehicle id="10" depart="22.00">
        <route edges="gneE1 1/1to2/1 2/1to3/1"/>
    </vehicle>
    <vehicle id="11" depart="24.20">
        <route edges="gneE3 7/1to8/1 8/1to1/1"/>
    </vehicle>
    <vehicle id="12" depart="26.40">
        <route edges="gneE2 3/1to2/1 2/1to1/1"/>
    </vehicle>
    <vehicle id="13" depart="28.60">
        <route edges="gneE7 8/1to7/1 7/1to6/1 6/1to5/1 5/1to6/1"/>
    </vehicle>
    <vehicle id="14" depart="30.80">
        <route edges="gneE6 2/1to3/1 3/1to4/1 4/1to5/1 5/1to6/1 6/1to5/1"/>
    </vehicle>
    <vehicle id="15" depart="33.00">
        <route edges="gneE0 5/1to6/1 6/1to7/1"/>
    </vehicle>
    <vehicle id="16" depart="35.20">
        <route edges="gneE5 4/1to3/1 3/1to2/1 2/1to1/1 1/1to8/1 8/1to1/1"/>
    </vehicle>
    <vehicle id="17" depart="37.40">
        <route edges="gneE5 4/1to3/1 3/1to2/1 2/1to1/1 1/1to8/1"/>
    </vehicle>
    <vehicle id="18" depart="39.60">
        <route edges="gneE7 8/1to1/1 1/1to2/1 2/1to3/1 3/1to4/1 4/1to5/1"/>
    </vehicle>
    <vehicle id="19" depart="41.80">
        <route edges="gneE3 7/1to8/1 8/1to1/1 1/1to2/1 2/1to1/1"/>
    </vehicle>
    <vehicle id="20" depart="44.00">
        <route edges="gneE1 1/1to8/1 8/1to7/1 7/1to6/1"/>
    </vehicle>
    <vehicle id="21" depart="46.20">
        <route edges="gneE2 3/1to2/1 2/1to1/1 1/1to8/1"/>
    </vehicle>
    <vehicle id="22" depart="48.40">
        <route edges="gneE7 8/1to1/1 1/1to2/1 2/1to3/1 3/1to4/1 4/1to3/1"/>
    </vehicle>
    <vehicle id="23" depart="50.60">
        <route edges="gneE1 1/1to2/1 2/1to3/1 3/1to4/1"/>
    </vehicle>
    <vehicle id="24" depart="52.80">
        <route edges="gneE0 5/1to4/1 4/1to3/1"/>
    </vehicle>
    <vehicle id="25" depart="55.00">
        <route edges="gneE7 8/1to7/1 7/1to6/1 6/1to5/1"/>
    </vehicle>
    <vehicle id="26" depart="57.20">
        <route edges="gneE7 8/1to1/1 1/1to2/1 2/1to3/1 3/1to4/1 4/1to3/1"/>
    </vehicle>
    <vehicle id="27" depart="59.40">
        <route edges="gneE1 1/1to8/1 8/1to7/1"/>
    </vehicle>
    <vehicle id="28" depart="61.60">
        <route edges="gneE5 4/1to5/1 5/1to6/1 6/1to7/1 7/1to6/1"/>
    </vehicle>
    <vehicle id="29" depart="63.80">
        <route edges="gneE6 2/1to3/1 3/1to4/1 4/1to5/1 5/1to6/1 6/1to7/1"/>
    </vehicle>
    <vehicle id="30" depart="66.00">
        <route edges="gneE4 6/1to5/1 5/1to4/1 4/1to3/1 3/1to4/1"/>
    </vehicle>
    <vehicle id="31" depart="68.20">
        <route edges="gneE0 5/1to4/1 4/1to3/1 3/1to2/1"/>
    </vehicle>
    <vehicle id="32" depart="70.40">
        <route edges="gneE2 3/1to4/1 4/1to5/1 5/1to6/1 6/1to7/1 7/1to6/1"/>
    </vehicle>
    <vehicle id="33" depart="72.60">
        <route edges="gneE6 2/1to3/1 3/1to4/1"/>
    </vehicle>
    <vehicle id="34" depart="74.80">
        <route edges="gneE5 4/1to5/1 5/1to6/1 6/1to7/1"/>
    </vehicle>
    <vehicle id="35" depart="77.00">
        <route edges="gneE4 6/1to5/1 5/1to4/1 4/1to3/1"/>
    </vehicle>
    <vehicle id="36" depart="79.20">
        <route edges="gneE5 4/1to5/1 5/1to6/1 6/1to7/1 7/1to6/1"/>
    </vehicle>
    <vehicle id="37" depart="81.40">
        <route edges="gneE7 8/1to1/1 1/1to2/1 2/1to3/1 3/1to4/1"/>
    </vehicle>
    <vehicle id="38" depart="83.60">
        <route edges="gneE4 6/1to7/1 7/1to8/1 8/1to1/1 1/1to2/1 2/1to3/1"/>
    </vehicle>
    <vehicle id="39" depart="85.80">
        <route edges="gneE5 4/1to3/1 3/1to2/1 2/1to1/1 1/1to8/1 8/1to1/1"/>
    </vehicle>
    <vehicle id="40" depart="88.00">
        <route edges="gneE5 4/1to3/1 3/1to2/1 2/1to1/1 1/1to8/1 8/1to7/1"/>
    </vehicle>
    <vehicle id="41" depart="90.20">
        <route edges="gneE2 3/1to4/1 4/1to5/1 5/1to6/1 6/1to5/1"/>
    </vehicle>
    <vehicle id="42" depart="92.40">
        <route edges="gneE6 2/1to3/1 3/1to4/1 4/1to5/1 5/1to6/1 6/1to7/1"/>
    </vehicle>
    <vehicle id="43" depart="94.60">
        <route edges="gneE1 1/1to2/1 2/1to3/1 3/1to4/1 4/1to5/1 5/1to6/1"/>
    </vehicle>
    <vehicle id="44" depart="96.80">
        <route edges="gneE2 3/1to2/1 2/1to1/1 1/1to8/1"/>
    </vehicle>
    <vehicle id="45" depart="99.00">
        <route edges="gneE2 3/1to2/1 2/1to1/1 1/1to8/1 8/1to1/1"/>
    </vehicle>
    <vehicle id="46" depart="101.20">
        <route edges="gneE5 4/1to3/1 3/1to2/1 2/1to1/1 1/1to8/1 8/1to1/1"/>
    </vehicle>
    <vehicle id="47" depart="103.40">
        <route edges="gneE7 8/1to1/1 1/1to2/1"/>
    </vehicle>
    <vehicle id="48" depart="105.60">
        <route edges="gneE6 2/1to3/1 3/1to4/1 4/1to5/1"/>
    </vehicle>
    <vehicle id="49" depart="107.80">
        <route edges="gneE2 3/1to4/1 4/1to5/1 5/1to6/1 6/1to7/1 7/1to8/1"/>
    </vehicle>
    <vehicle id="50" depart="110.00">
        <route edges="gneE5 4/1to5/1 5/1to6/1"/>
    </vehicle>
    <vehicle id="51" depart="112.20">
        <route edges="gneE3 7/1to6/1 6/1to5/1 5/1to4/1 4/1to3/1"/>
    </vehicle>
    <vehicle id="52" depart="114.40">
        <route edges="gneE0 5/1to6/1 6/1to7/1 7/1to8/1"/>
    </vehicle>
    <vehicle id="53" depart="116.60">
        <route edges="gneE1 1/1to2/1 2/1to3/1 3/1to4/1"/>
    </vehicle>
    <vehicle id="54" depart="118.80">
        <route edges="gneE6 2/1to1/1 1/1to8/1 8/1to7/1 7/1to8/1"/>
    </vehicle>
    <vehicle id="55" depart="121.00">
        <route edges="gneE0 5/1to4/1 4/1to3/1 3/1to2/1 2/1to1/1"/>
    </vehicle>
    <vehicle id="56" depart="123.20">
        <route edges="gneE5 4/1to3/1 3/1to2/1 2/1to1/1 1/1to8/1"/>
    </vehicle>
    <vehicle id="57" depart="125.40">
        <route edges="gneE2 3/1to4/1 4/1to5/1 5/1to6/1 6/1to5/1"/>
    </vehicle>
    <vehicle id="58" depart="127.60">
        <route edges="gneE5 4/1to3/1 3/1to2/1 2/1to1/1 1/1to8/1"/>
    </vehicle>
    <vehicle id="59" depart="129.80">
        <route edges="gneE2 3/1to4/1 4/1to5/1 5/1to6/1"/>
    </vehicle>
    <vehicle id="60" depart="132.00">
        <route edges="gneE5 4/1to3/1 3/1to2/1 2/1to1/1 1/1to8/1 8/1to1/1"/>
    </vehicle>
    <vehicle id="61" depart="134.20">
        <route edges="gneE4 6/1to5/1 5/1to4/1 4/1to3/1"/>
    </vehicle>
    <vehicle id="62" depart="136.40">
        <route edges="gneE7 8/1to1/1 1/1to2/1 2/1to3/1 3/1to4/1 4/1to3/1"/>
    </vehicle>
    <vehicle id="63" depart="138.60">
        <route edges="gneE5 4/1to3/1 3/1to2/1 2/1to1/1 1/1to8/1"/>
    </vehicle>
    <vehicle id="64" depart="140.80">
        <route edges="1/1to2/1 2/1to3/1 3/1to4/1 4/1to5/1"/>
    </vehicle>
    <vehicle id="65" depart="143.00">
        <route edges="gneE0 5/1to4/1 4/1to3/1 3/1to2/1 2/1to1/1 1/1to8/1"/>
    </vehicle>
    <vehicle id="66" depart="145.20">
        <route edges="gneE1 1/1to2/1 2/1to3/1 3/1to4/1 4/1to5/1 5/1to4/1"/>
    </vehicle>
    <vehicle id="67" depart="147.40">
        <route edges="gneE4 6/1to5/1 5/1to4/1"/>
    </vehicle>
    <vehicle id="68" depart="149.60">
        <route edges="gneE3 7/1to8/1 8/1to1/1 1/1to2/1 2/1to3/1 3/1to2/1"/>
    </vehicle>
    <vehicle id="69" depart="151.80">
        <route edges="gneE6 2/1to1/1 1/1to8/1"/>
    </vehicle>
    <vehicle id="70" depart="154.00">
        <route edges="gneE4 6/1to5/1 5/1to4/1 4/1to3/1 3/1to4/1"/>
    </vehicle>
    <vehicle id="71" depart="156.20">
        <route edges="gneE0 5/1to6/1 6/1to7/1 7/1to8/1 8/1to1/1"/>
    </vehicle>
    <vehicle id="72" depart="158.40">
        <route edges="gneE7 8/1to1/1 1/1to2/1"/>
    </vehicle>
    <vehicle id="73" depart="160.60">
        <route edges="gneE6 2/1to1/1 1/1to8/1 8/1to7/1 7/1to6/1"/>
    </vehicle>
    <vehicle id="74" depart="162.80">
        <route edges="gneE5 4/1to3/1 3/1to2/1"/>
    </vehicle>
    <vehicle id="75" depart="165.00">
        <route edges="gneE1 1/1to2/1 2/1to3/1 3/1to4/1"/>
    </vehicle>
    <vehicle id="76" depart="167.20">
        <route edges="gneE4 6/1to5/1 5/1to4/1 4/1to3/1 3/1to2/1"/>
    </vehicle>
    <vehicle id="77" depart="169.40">
        <route edges="gneE3 7/1to8/1 8/1to1/1 1/1to2/1 2/1to3/1 3/1to4/1"/>
    </vehicle>
    <vehicle id="78" depart="171.60">
        <route edges="gneE7 8/1to1/1 1/1to2/1"/>
    </vehicle>
    <vehicle id="79" depart="173.80">
        <route edges="gneE4 6/1to5/1 5/1to4/1 4/1to3/1 3/1to4/1"/>
    </vehicle>
    <vehicle id="80" depart="176.00">
        <route edges="gneE4 6/1to5/1 5/1to4/1 4/1to3/1"/>
    </vehicle>
    <vehicle id="81" depart="178.20">
        <route edges="gneE0 5/1to4/1 4/1to3/1 3/1to2/1 2/1to1/1 1/1to8/1"/>
    </vehicle>
    <vehicle id="82" depart="180.40">
        <route edges="gneE3 7/1to8/1 8/1to1/1 1/1to2/1"/>
    </vehicle>
    <vehicle id="83" depart="182.60">
        <route edges="gneE5 4/1to5/1 5/1to6/1"/>
    </vehicle>
    <vehicle id="84" depart="184.80">
        <route edges="gneE6 2/1to3/1 3/1to4/1 4/1to5/1 5/1to6/1"/>
    </vehicle>
    <vehicle id="85" depart="187.00">
        <route edges="7/1to8/1 8/1to1/1 1/1to2/1 2/1to3/1"/>
    </vehicle>
    <vehicle id="86" depart="189.20">
        <route edges="gneE0 5/1to4/1 4/1to3/1 3/1to2/1 2/1to1/1"/>
    </vehicle>
    <vehicle id="87" depart="191.40">
        <route edges="gneE7 8/1to1/1 1/1to2/1 2/1to3/1"/>
    </vehicle>
    <vehicle id="88" depart="193.60">
        <route edges="gneE7 8/1to1/1 1/1to2/1 2/1to3/1 3/1to4/1"/>
    </vehicle>
    <vehicle id="89" depart="195.80">
        <route edges="gneE7 8/1to1/1 1/1to2/1 2/1to3/1"/>
    </vehicle>
    <vehicle id="90" depart="198.00">
        <route edges="gneE5 4/1to3/1 3/1to2/1 2/1to1/1 1/1to2/1"/>
    </vehicle>
    <vehicle id="91" depart="200.20">
        <route edges="gneE5 4/1to5/1 5/1to6/1"/>
    </vehicle>
    <vehicle id="92" depart="202.40">
        <route edges="gneE0 5/1to6/1 6/1to7/1 7/1to8/1"/>
    </vehicle>
    <vehicle id="93" depart="204.60">
        <route edges="gneE2 3/1to2/1 2/1to1/1 1/1to8/1 8/1to7/1"/>
    </vehicle>
    <vehicle id="94" depart="206.80">
        <route edges="gneE6 2/1to1/1 1/1to8/1 8/1to7/1"/>
    </vehicle>
    <vehicle id="95" depart="209.00">
        <route edges="gneE1 1/1to8/1 8/1to7/1 7/1to6/1 6/1to5/1"/>
    </vehicle>
    <vehicle id="96" depart="211.20">
        <route edges="gneE2 3/1to2/1 2/1to1/1 1/1to8/1 8/1to7/1"/>
    </vehicle>
    <vehicle id="97" depart="213.40">
        <route edges="gneE3 7/1to6/1 6/1to5/1 5/1to4/1"/>
    </vehicle>
    <vehicle id="98" depart="215.60">
        <route edges="gneE6 2/1to3/1 3/1to4/1 4/1to5/1"/>
    </vehicle>
    <vehicle id="99" depart="217.80">
        <route edges="gneE2 3/1to4/1 4/1to5/1 5/1to6/1 6/1to7/1 7/1to8/1"/>
    </vehicle>
    <vehicle id="100" depart="220.00">
        <route edges="gneE7 8/1to1/1 1/1to2/1 2/1to3/1 3/1to4/1 4/1to3/1"/>
    </vehicle>
    <vehicle id="101" depart="222.20">
        <route edges="gneE3 7/1to6/1 6/1to5/1"/>
    </vehicle>
    <vehicle id="102" depart="224.40">
        <route edges="gneE1 1/1to8/1 8/1to7/1 7/1to6/1 6/1to7/1"/>
    </vehicle>
    <vehicle id="103" depart="226.60">
        <route edges="gneE2 3/1to4/1 4/1to5/1 5/1to6/1 6/1to7/1"/>
    </vehicle>
    <vehicle id="104" depart="228.80">
        <route edges="1/1to2/1 2/1to3/1 3/1to4/1 4/1to5/1 5/1to6/1 6/1to5/1"/>
    </vehicle>
    <vehicle id="105" depart="231.00">
        <route edges="gneE5 4/1to3/1 3/1to2/1 2/1to1/1 1/1to2/1"/>
    </vehicle>
    <vehicle id="106" depart="233.20">
        <route edges="gneE5 4/1to5/1 5/1to6/1"/>
    </vehicle>
    <vehicle id="107" depart="235.40">
        <route edges="gneE0 5/1to4/1 4/1to3/1 3/1to2/1 2/1to1/1 1/1to2/1"/>
    </vehicle>
    <vehicle id="108" depart="237.60">
        <route edges="gneE6 2/1to1/1 1/1to8/1"/>
    </vehicle>
    <vehicle id="109" depart="239.80">
        <route edges="gneE3 7/1to8/1 8/1to1/1"/>
    </vehicle>
    <vehicle id="110" depart="242.00">
        <route edges="gneE3 7/1to6/1 6/1to5/1 5/1to4/1"/>
    </vehicle>
    <vehicle id="111" depart="244.20">
        <route edges="gneE2 3/1to2/1 2/1to1/1 1/1to8/1"/>
    </vehicle>
    <vehicle id="112" depart="246.40">
        <route edges="gneE1 1/1to8/1 8/1to7/1"/>
    </vehicle>
    <vehicle id="113" depart="248.60">
        <route edges="gneE6 2/1to3/1 3/1to4/1 4/1to5/1 5/1to6/1"/>
    </vehicle>
    <vehicle id="114" depart="250.80">
        <route edges="gneE4 6/1to5/1 5/1to4/1"/>
    </vehicle>
    <vehicle id="115" depart="253.00">
        <route edges="gneE4 6/1to7/1 7/1to8/1 8/1to1/1 1/1to2/1 2/1to3/1"/>
    </vehicle>
    <vehicle id="116" depart="255.20">
        <route edges="gneE0 5/1to4/1 4/1to3/1"/>
    </vehicle>
    <vehicle id="117" depart="257.40">
        <route edges="gneE7 8/1to1/1 1/1to2/1 2/1to3/1"/>
    </vehicle>
    <vehicle id="118" depart="259.60">
        <route edges="gneE6 2/1to1/1 1/1to8/1 8/1to7/1 7/1to6/1"/>
    </vehicle>
    <vehicle id="119" depart="261.80">
        <route edges="gneE6 2/1to3/1 3/1to4/1 4/1to5/1 5/1to6/1 6/1to5/1"/>
    </vehicle>
    <vehicle id="120" depart="264.00">
        <route edges="gneE2 3/1to4/1 4/1to5/1 5/1to6/1 6/1to5/1"/>
    </vehicle>
    <vehicle id="121" depart="266.20">
        <route edges="gneE1 1/1to2/1 2/1to3/1 3/1to4/1 4/1to3/1"/>
    </vehicle>
    <vehicle id="122" depart="268.40">
        <route edges="gneE7 8/1to7/1 7/1to6/1 6/1to5/1"/>
    </vehicle>
    <vehicle id="123" depart="270.60">
        <route edges="gneE2 3/1to2/1 2/1to1/1 1/1to8/1"/>
    </vehicle>
    <vehicle id="124" depart="272.80">
        <route edges="gneE3 7/1to8/1 8/1to1/1 1/1to2/1 2/1to3/1 3/1to4/1"/>
    </vehicle>
    <vehicle id="125" depart="275.00">
        <route edges="gneE3 7/1to6/1 6/1to5/1 5/1to4/1 4/1to3/1"/>
    </vehicle>
    <vehicle id="126" depart="277.20">
        <route edges="gneE4 6/1to5/1 5/1to4/1"/>
    </vehicle>
    <vehicle id="127" depart="279.40">
        <route edges="gneE6 2/1to3/1 3/1to4/1 4/1to5/1 5/1to4/1"/>
    </vehicle>
    <vehicle id="128" depart="281.60">
        <route edges="gneE6 2/1to1/1 1/1to8/1 8/1to7/1"/>
    </vehicle>
    <vehicle id="129" depart="283.80">
        <route edges="gneE0 5/1to4/1 4/1to3/1 3/1to2/1"/>
    </vehicle>
    <vehicle id="130" depart="286.00">
        <route edges="gneE5 4/1to5/1 5/1to6/1 6/1to7/1"/>
    </vehicle>
    <vehicle id="131" depart="288.20">
        <route edges="gneE5 4/1to3/1 3/1to2/1"/>
    </vehicle>
    <vehicle id="132" depart="290.40">
        <route edges="gneE2 3/1to4/1 4/1to5/1 5/1to6/1 6/1to5/1"/>
    </vehicle>
    <vehicle id="133" depart="292.60">
        <route edges="gneE2 3/1to4/1 4/1to5/1"/>
    </vehicle>
    <vehicle id="134" depart="294.80">
        <route edges="gneE3 7/1to8/1 8/1to1/1 1/1to2/1"/>
    </vehicle>
    <vehicle id="135" depart="297.00">
        <route edges="gneE7 8/1to1/1 1/1to2/1 2/1to3/1 3/1to4/1 4/1to5/1"/>
    </vehicle>
    <vehicle id="136" depart="299.20">
        <route edges="gneE2 3/1to2/1 2/1to1/1 1/1to8/1 8/1to7/1"/>
    </vehicle>
    <vehicle id="137" depart="301.40">
        <route edges="gneE1 1/1to2/1 2/1to3/1 3/1to4/1 4/1to3/1"/>
    </vehicle>
    <vehicle id="138" depart="303.60">
        <route edges="gneE7 8/1to1/1 1/1to2/1 2/1to3/1 3/1to2/1"/>
    </vehicle>
    <vehicle id="139" depart="305.80">
        <route edges="gneE4 6/1to5/1 5/1to4/1 4/1to3/1 3/1to2/1"/>
    </vehicle>
    <vehicle id="140" depart="308.00">
        <route edges="gneE4 6/1to5/1 5/1to4/1 4/1to3/1 3/1to4/1"/>
    </vehicle>
    <vehicle id="141" depart="310.20">
        <route edges="gneE6 2/1to1/1 1/1to8/1 8/1to7/1 7/1to6/1"/>
    </vehicle>
    <vehicle id="142" depart="312.40">
        <route edges="gneE7 8/1to7/1 7/1to6/1"/>
    </vehicle>
    <vehicle id="143" depart="314.60">
        <route edges="1/1to2/1 2/1to3/1 3/1to4/1 4/1to5/1"/>
    </vehicle>
    <vehicle id="144" depart="316.80">
        <route edges="gneE3 7/1to6/1 6/1to5/1 5/1to4/1"/>
    </vehicle>
    <vehicle id="145" depart="319.00">
        <route edges="gneE1 1/1to8/1 8/1to7/1 7/1to6/1"/>
    </vehicle>
    <vehicle id="146" depart="321.20">
        <route edges="gneE2 3/1to2/1 2/1to1/1 1/1to8/1"/>
    </vehicle>
    <vehicle id="147" depart="323.40">
        <route edges="gneE1 1/1to8/1 8/1to7/1 7/1to6/1"/>
    </vehicle>
    <vehicle id="148" depart="325.60">
        <route edges="gneE4 6/1to7/1 7/1to8/1 8/1to1/1 1/1to8/1"/>
    </vehicle>
    <vehicle id="149" depart="327.80">
        <route edges="gneE1 1/1to8/1 8/1to7/1 7/1to6/1 6/1to5/1"/>
    </vehicle>
    <vehicle id="150" depart="330.00">
        <route edges="gneE2 3/1to4/1 4/1to5/1 5/1to6/1"/>
    </vehicle>
    <vehicle id="151" depart="332.20">
        <route edges="gneE1 1/1to2/1 2/1to3/1"/>
    </vehicle>
    <vehicle id="152" depart="334.40">
        <route edges="gneE2 3/1to4/1 4/1to5/1 5/1to6/1 6/1to5/1"/>
    </vehicle>
    <vehicle id="153" depart="336.60">
        <route edges="gneE0 5/1to6/1 6/1to7/1 7/1to8/1"/>
    </vehicle>
    <vehicle id="154" depart="338.80">
        <route edges="gneE6 2/1to1/1 1/1to8/1 8/1to7/1 7/1to6/1"/>
    </vehicle>
    <vehicle id="155" depart="341.00">
        <route edges="gneE0 5/1to6/1 6/1to7/1"/>
    </vehicle>
    <vehicle id="156" depart="343.20">
        <route edges="gneE0 5/1to6/1 6/1to7/1"/>
    </vehicle>
    <vehicle id="157" depart="345.40">
        <route edges="gneE5 4/1to3/1 3/1to2/1 2/1to1/1 1/1to2/1"/>
    </vehicle>
    <vehicle id="158" depart="347.60">
        <route edges="gneE6 2/1to1/1 1/1to8/1 8/1to7/1 7/1to8/1"/>
    </vehicle>
    <vehicle id="159" depart="349.80">
        <route edges="gneE4 6/1to5/1 5/1to4/1 4/1to3/1"/>
    </vehicle>
    <vehicle id="160" depart="352.00">
        <route edges="gneE5 4/1to3/1 3/1to2/1 2/1to1/1 1/1to8/1 8/1to7/1"/>
    </vehicle>
    <vehicle id="161" depart="354.20">
        <route edges="gneE0 5/1to6/1 6/1to7/1 7/1to8/1 8/1to1/1"/>
    </vehicle>
    <vehicle id="162" depart="356.40">
        <route edges="gneE1 1/1to2/1 2/1to3/1"/>
    </vehicle>
    <vehicle id="163" depart="358.60">
        <route edges="gneE6 2/1to1/1 1/1to8/1 8/1to7/1 7/1to8/1"/>
    </vehicle>
    <vehicle id="164" depart="360.80">
        <route edges="gneE7 8/1to1/1 1/1to2/1 2/1to3/1 3/1to4/1"/>
    </vehicle>
    <vehicle id="165" depart="363.00">
        <route edges="gneE4 6/1to5/1 5/1to4/1 4/1to3/1 3/1to4/1"/>
    </vehicle>
    <vehicle id="166" depart="365.20">
        <route edges="gneE7 8/1to1/1 1/1to2/1 2/1to3/1 3/1to2/1"/>
    </vehicle>
    <vehicle id="167" depart="367.40">
        <route edges="gneE3 7/1to6/1 6/1to5/1 5/1to4/1"/>
    </vehicle>
    <vehicle id="168" depart="369.60">
        <route edges="gneE5 4/1to3/1 3/1to2/1 2/1to1/1"/>
    </vehicle>
    <vehicle id="169" depart="371.80">
        <route edges="gneE4 6/1to7/1 7/1to8/1 8/1to1/1 1/1to2/1 2/1to3/1"/>
    </vehicle>
    <vehicle id="170" depart="374.00">
        <route edges="gneE4 6/1to5/1 5/1to4/1 4/1to3/1 3/1to4/1"/>
    </vehicle>
    <vehicle id="171" depart="376.20">
        <route edges="gneE1 1/1to2/1 2/1to3/1 3/1to4/1 4/1to3/1"/>
    </vehicle>
    <vehicle id="172" depart="378.40">
        <route edges="gneE7 8/1to7/1 7/1to6/1 6/1to5/1"/>
    </vehicle>
    <vehicle id="173" depart="380.60">
        <route edges="gneE6 2/1to1/1 1/1to8/1 8/1to7/1 7/1to6/1"/>
    </vehicle>
    <vehicle id="174" depart="382.80">
        <route edges="gneE1 1/1to2/1 2/1to3/1"/>
    </vehicle>
    <vehicle id="175" depart="385.00">
        <route edges="gneE5 4/1to3/1 3/1to2/1 2/1to1/1 1/1to8/1 8/1to7/1"/>
    </vehicle>
    <vehicle id="176" depart="387.20">
        <route edges="gneE6 2/1to1/1 1/1to8/1 8/1to7/1"/>
    </vehicle>
    <vehicle id="177" depart="389.40">
        <route edges="gneE4 6/1to5/1 5/1to4/1 4/1to3/1"/>
    </vehicle>
    <vehicle id="178" depart="391.60">
        <route edges="gneE3 7/1to8/1 8/1to1/1"/>
    </vehicle>
    <vehicle id="179" depart="393.80">
        <route edges="gneE6 2/1to3/1 3/1to4/1 4/1to5/1 5/1to6/1"/>
    </vehicle>
    <vehicle id="180" depart="396.00">
        <route edges="gneE7 8/1to7/1 7/1to6/1"/>
    </vehicle>
    <vehicle id="181" depart="398.20">
        <route edges="gneE5 4/1to3/1 3/1to2/1 2/1to1/1 1/1to8/1 8/1to1/1"/>
    </vehicle>
    <vehicle id="182" depart="400.40">
        <route edges="gneE1 1/1to2/1 2/1to3/1 3/1to4/1 4/1to3/1"/>
    </vehicle>
    <vehicle id="183" depart="402.60">
        <route edges="gneE7 8/1to1/1 1/1to2/1 2/1to3/1"/>
    </vehicle>
    <vehicle id="184" depart="404.80">
        <route edges="gneE7 8/1to7/1 7/1to6/1"/>
    </vehicle>
    <vehicle id="185" depart="407.00">
        <route edges="gneE1 1/1to2/1 2/1to3/1 3/1to4/1"/>
    </vehicle>
    <vehicle id="186" depart="409.20">
        <route edges="gneE2 3/1to4/1 4/1to5/1 5/1to6/1 6/1to5/1"/>
    </vehicle>
    <vehicle id="187" depart="411.40">
        <route edges="gneE2 3/1to4/1 4/1to5/1 5/1to6/1 6/1to7/1 7/1to8/1"/>
    </vehicle>
    <vehicle id="188" depart="413.60">
        <route edges="gneE7 8/1to7/1 7/1to6/1 6/1to5/1 5/1to4/1"/>
    </vehicle>
    <vehicle id="189" depart="415.80">
        <route edges="gneE3 7/1to8/1 8/1to1/1 1/1to2/1 2/1to3/1"/>
    </vehicle>
    <vehicle id="190" depart="418.00">
        <route edges="gneE0 5/1to6/1 6/1to7/1 7/1to8/1 8/1to1/1"/>
    </vehicle>
    <vehicle id="191" depart="420.20">
        <route edges="gneE3 7/1to6/1 6/1to5/1 5/1to4/1 4/1to5/1"/>
    </vehicle>
    <vehicle id="192" depart="422.40">
        <route edges="gneE5 4/1to5/1 5/1to6/1 6/1to7/1 7/1to8/1"/>
    </vehicle>
    <vehicle id="193" depart="424.60">
        <route edges="gneE1 1/1to2/1 2/1to3/1 3/1to4/1"/>
    </vehicle>
    <vehicle id="194" depart="426.80">
        <route edges="gneE5 4/1to5/1 5/1to6/1 6/1to7/1 7/1to8/1"/>
    </vehicle>
    <vehicle id="195" depart="429.00">
        <route edges="gneE2 3/1to4/1 4/1to5/1"/>
    </vehicle>
    <vehicle id="196" depart="431.20">
        <route edges="gneE6 2/1to3/1 3/1to4/1 4/1to5/1"/>
    </vehicle>
    <vehicle id="197" depart="433.40">
        <route edges="gneE6 2/1to1/1 1/1to8/1 8/1to7/1 7/1to8/1"/>
    </vehicle>
    <vehicle id="198" depart="435.60">
        <route edges="gneE2 3/1to2/1 2/1to1/1 1/1to8/1 8/1to7/1"/>
    </vehicle>
    <vehicle id="199" depart="437.80">
        <route edges="gneE2 3/1to4/1 4/1to5/1 5/1to6/1 6/1to7/1 7/1to6/1"/>
    </vehicle>
    <vehicle id="200" depart="440.00">
        <route edges="gneE0 5/1to6/1 6/1to7/1 7/1to8/1"/>
    </vehicle>
    <vehicle id="201" depart="442.20">
        <route edges="gneE6 2/1to1/1 1/1to8/1 8/1to7/1 7/1to6/1"/>
    </vehicle>
    <vehicle id="202" depart="444.40">
        <route edges="gneE1 1/1to8/1 8/1to7/1 7/1to6/1"/>
    </vehicle>
    <vehicle id="203" depart="446.60">
        <route edges="gneE2 3/1to4/1 4/1to5/1 5/1to6/1 6/1to7/1 7/1to8/1"/>
    </vehicle>
    <vehicle id="204" depart="448.80">
        <route edges="gneE2 3/1to4/1 4/1to5/1 5/1to6/1"/>
    </vehicle>
    <vehicle id="205" depart="451.00">
        <route edges="gneE1 1/1to2/1 2/1to3/1 3/1to4/1 4/1to5/1 5/1to6/1"/>
    </vehicle>
    <vehicle id="206" depart="453.20">
        <route edges="gneE4 6/1to5/1 5/1to4/1"/>
    </vehicle>
    <vehicle id="207" depart="455.40">
        <route edges="gneE4 6/1to7/1 7/1to8/1 8/1to1/1 1/1to2/1 2/1to1/1"/>
    </vehicle>
    <vehicle id="208" depart="457.60">
        <route edges="gneE0 5/1to6/1 6/1to7/1 7/1to8/1 8/1to7/1"/>
    </vehicle>
    <vehicle id="209" depart="459.80">
        <route edges="gneE3 7/1to8/1 8/1to1/1 1/1to2/1 2/1to1/1"/>
    </vehicle>
    <vehicle id="210" depart="462.00">
        <route edges="gneE7 8/1to7/1 7/1to6/1 6/1to5/1 5/1to6/1"/>
    </vehicle>
    <vehicle id="211" depart="464.20">
        <route edges="gneE4 6/1to7/1 7/1to8/1 8/1to1/1 1/1to2/1 2/1to1/1"/>
    </vehicle>
    <vehicle id="212" depart="466.40">
        <route edges="gneE4 6/1to5/1 5/1to4/1 4/1to3/1 3/1to2/1"/>
    </vehicle>
    <vehicle id="213" depart="468.60">
        <route edges="gneE4 6/1to7/1 7/1to8/1 8/1to1/1 1/1to2/1"/>
    </vehicle>
    <vehicle id="214" depart="470.80">
        <route edges="gneE4 6/1to7/1 7/1to8/1 8/1to1/1 1/1to2/1 2/1to1/1"/>
    </vehicle>
    <vehicle id="215" depart="473.00">
        <route edges="gneE6 2/1to1/1 1/1to8/1 8/1to7/1 7/1to6/1"/>
    </vehicle>
    <vehicle id="216" depart="475.20">
        <route edges="gneE4 6/1to5/1 5/1to4/1"/>
    </vehicle>
    <vehicle id="217" depart="477.40">
        <route edges="gneE4 6/1to7/1 7/1to8/1"/>
    </vehicle>
    <vehicle id="218" depart="479.60">
        <route edges="7/1to6/1 6/1to7/1 7/1to8/1 8/1to1/1 1/1to2/1 2/1to3/1"/>
    </vehicle>
    <vehicle id="219" depart="481.80">
        <route edges="gneE5 4/1to5/1 5/1to6/1 6/1to7/1 7/1to8/1"/>
    </vehicle>
    <vehicle id="220" depart="484.00">
        <route edges="gneE2 3/1to2/1 2/1to1/1 1/1to8/1 8/1to1/1"/>
    </vehicle>
    <vehicle id="221" depart="486.20">
        <route edges="gneE6 2/1to3/1 3/1to4/1 4/1to5/1 5/1to6/1"/>
    </vehicle>
    <vehicle id="222" depart="488.40">
        <route edges="gneE1 1/1to2/1 2/1to3/1"/>
    </vehicle>
    <vehicle id="223" depart="490.60">
        <route edges="gneE2 3/1to4/1 4/1to5/1 5/1to6/1 6/1to5/1"/>
    </vehicle>
    <vehicle id="224" depart="492.80">
        <route edges="gneE3 7/1to6/1 6/1to5/1 5/1to4/1 4/1to5/1"/>
    </vehicle>
    <vehicle id="225" depart="495.00">
        <route edges="gneE7 8/1to7/1 7/1to6/1"/>
    </vehicle>
    <vehicle id="226" depart="497.20">
        <route edges="gneE3 7/1to8/1 8/1to1/1 1/1to2/1 2/1to3/1 3/1to4/1"/>
    </vehicle>
    <vehicle id="227" depart="499.40">
        <route edges="gneE1 1/1to2/1 2/1to3/1 3/1to4/1 4/1to5/1 5/1to6/1"/>
    </vehicle>
    <vehicle id="228" depart="501.60">
        <route edges="gneE7 8/1to1/1 1/1to2/1"/>
    </vehicle>
    <vehicle id="229" depart="503.80">
        <route edges="gneE0 5/1to6/1 6/1to7/1 7/1to8/1"/>
    </vehicle>
    <vehicle id="230" depart="506.00">
        <route edges="gneE6 2/1to3/1 3/1to4/1 4/1to5/1 5/1to6/1 6/1to5/1"/>
    </vehicle>
    <vehicle id="231" depart="508.20">
        <route edges="gneE7 8/1to7/1 7/1to6/1 6/1to5/1 5/1to6/1"/>
    </vehicle>
    <vehicle id="232" depart="510.40">
        <route edges="gneE7 8/1to1/1 1/1to2/1 2/1to3/1"/>
    </vehicle>
    <vehicle id="233" depart="512.60">
        <route edges="gneE6 2/1to3/1 3/1to4/1 4/1to5/1 5/1to4/1"/>
    </vehicle>
    <vehicle id="234" depart="514.80">
        <route edges="gneE0 5/1to4/1 4/1to3/1 3/1to2/1 2/1to1/1 1/1to2/1"/>
    </vehicle>
    <vehicle id="235" depart="517.00">
        <route edges="gneE7 8/1to1/1 1/1to2/1 2/1to3/1 3/1to4/1 4/1to3/1"/>
    </vehicle>
    <vehicle id="236" depart="519.20">
        <route edges="gneE6 2/1to3/1 3/1to4/1"/>
    </vehicle>
    <vehicle id="237" depart="521.40">
        <route edges="gneE3 7/1to8/1 8/1to1/1 1/1to2/1 2/1to3/1"/>
    </vehicle>
    <vehicle id="238" depart="523.60">
        <route edges="gneE1 1/1to2/1 2/1to3/1 3/1to4/1"/>
    </vehicle>
    <vehicle id="239" depart="525.80">
        <route edges="gneE1 1/1to8/1 8/1to7/1 7/1to6/1 6/1to5/1"/>
    </vehicle>
    <vehicle id="240" depart="528.00">
        <route edges="gneE6 2/1to1/1 1/1to8/1"/>
    </vehicle>
    <vehicle id="241" depart="530.20">
        <route edges="gneE1 1/1to8/1 8/1to7/1 7/1to6/1 6/1to5/1"/>
    </vehicle>
    <vehicle id="242" depart="532.40">
        <route edges="gneE3 7/1to8/1 8/1to1/1 1/1to2/1 2/1to1/1"/>
    </vehicle>
    <vehicle id="243" depart="534.60">
        <route edges="gneE4 6/1to5/1 5/1to4/1 4/1to3/1 3/1to4/1"/>
    </vehicle>
    <vehicle id="244" depart="536.80">
        <route edges="gneE3 7/1to8/1 8/1to1/1 1/1to2/1 2/1to3/1 3/1to2/1"/>
    </vehicle>
    <vehicle id="245" depart="539.00">
        <route edges="gneE2 3/1to4/1 4/1to5/1 5/1to6/1 6/1to5/1"/>
    </vehicle>
    <vehicle id="246" depart="541.20">
        <route edges="gneE5 4/1to3/1 3/1to2/1 2/1to1/1"/>
    </vehicle>
    <vehicle id="247" depart="543.40">
        <route edges="gneE6 2/1to3/1 3/1to4/1 4/1to5/1 5/1to6/1"/>
    </vehicle>
    <vehicle id="248" depart="545.60">
        <route edges="gneE1 1/1to2/1 2/1to3/1 3/1to4/1"/>
    </vehicle>