<?xml version="1.0" encoding="UTF-8"?>

<!-- generated on Sun May  6 20:38:33 2018 by SUMO duarouter Version 0.30.0
<?xml version="1.0" encoding="UTF-8"?>

<configuration xmlns:xsi="http://www.w3.org/2001/XMLSchema-instance" xsi:noNamespaceSchemaLocation="http://sumo.dlr.de/xsd/duarouterConfiguration.xsd">

    <input>
        <net-file value="new_manhattan/new_manhattan.net.xml"/>
        <route-files value="trips.trips.xml"/>
    </input>

    <output>
        <output-file value="new_manhattan/route/new_manhattan-1.35-1.rou.xml"/>
    </output>

    <processing>
        <ignore-errors value="true"/>
    </processing>

    <time>
        <begin value="0.0"/>
        <end value="1000.0"/>
    </time>

    <report>
        <no-warnings value="true"/>
        <no-step-log value="true"/>
    </report>

</configuration>
-->

<routes xmlns:xsi="http://www.w3.org/2001/XMLSchema-instance" xsi:noNamespaceSchemaLocation="http://sumo.dlr.de/xsd/routes_file.xsd">
    <vehicle id="0" depart="0.00">
        <route edges="gneE19 1/2to0/2 0/2to0/1 0/1to1/1"/>
    </vehicle>
    <vehicle id="1" depart="1.35">
        <route edges="-gneE13 0/0to1/0 1/0to2/0 gneE11"/>
    </vehicle>
    <vehicle id="2" depart="2.70">
        <route edges="-gneE9 2/2to2/1 2/1to2/0 gneE11"/>
    </vehicle>
    <vehicle id="3" depart="4.05">
        <route edges="gneE20 2/1to1/1 1/1to0/1 0/1to0/2 gneE7"/>
    </vehicle>
    <vehicle id="4" depart="5.40">
        <route edges="-gneE13 0/0to1/0 1/0to2/0 gneE11"/>
    </vehicle>
    <vehicle id="5" depart="6.75">
        <route edges="-gneE5 0/2to1/2 1/2to2/2 gneE9"/>
    </vehicle>
    <vehicle id="6" depart="8.10">
        <route edges="-gneE7 0/2to0/1 0/1to0/0 gneE13"/>
    </vehicle>
    <vehicle id="7" depart="9.45">
        <route edges="-gneE7 0/2to0/1 0/1to0/0 0/0to1/0 1/0to2/0 gneE11"/>
    </vehicle>
    <vehicle id="8" depart="10.80">
        <route edges="gneE23 0/1to0/0 gneE14"/>
    </vehicle>
    <vehicle id="9" depart="12.15">
        <route edges="-gneE12 2/0to2/1 2/1to2/2 gneE9"/>
    </vehicle>
    <vehicle id="10" depart="13.50">
        <route edges="-gneE7 0/2to0/1 0/1to0/0 gneE13"/>
    </vehicle>
    <vehicle id="11" depart="14.85">
        <route edges="-gneE9 2/2to1/2 1/2to2/2 gneE9"/>
    </vehicle>
    <vehicle id="12" depart="16.20">
        <route edges="-gneE7 0/2to0/1 0/1to0/0 0/0to1/0 1/0to2/0 gneE11"/>
    </vehicle>
    <vehicle id="13" depart="17.55">
        <route edges="-gneE14 gneE13"/>
    </vehicle>
    <vehicle id="14" depart="18.90">
        <route edges="-gneE9 2/2to1/2 1/2to0/2 0/2to0/1 0/1to0/0 gneE14"/>
    </vehicle>
    <vehicle id="15" depart="20.25">
        <route edges="gneE19 1/2to0/2 0/2to0/1 0/1to0/0 gneE14"/>
    </vehicle>
    <vehicle id="16" depart="21.60">
        <route edges="-gneE9 2/2to1/2 1/2to0/2 gneE5"/>
    </vehicle>
    <vehicle id="17" depart="22.95">
        <route edges="-gneE12 2/0to1/0 1/0to2/0"/>
    </vehicle>
    <vehicle id="18" depart="24.30">
        <route edges="gneE19 1/2to0/2 gneE5"/>
    </vehicle>
    <vehicle id="19" depart="25.65">
        <route edges="gneE20 2/1to2/0 gneE12"/>
    </vehicle>
    <vehicle id="20" depart="27.00">
        <route edges="gneE19 1/2to0/2 0/2to0/1 0/1to0/0 gneE13"/>
    </vehicle>
    <vehicle id="21" depart="28.35">
        <route edges="-gneE13 0/0to1/0 -gneE22"/>
    </vehicle>
    <vehicle id="22" depart="29.70">
        <route edges="gneE23 0/1to0/0 0/0to1/0 1/0to2/0 gneE11"/>
    </vehicle>
    <vehicle id="23" depart="31.05">
        <route edges="-gneE11 2/0to2/1 -gneE20"/>
    </vehicle>
    <vehicle id="24" depart="32.40">
        <route edges="-gneE11 2/0to1/0 1/0to0/0 0/0to0/1 0/1to0/2 gneE7"/>
    </vehicle>
    <vehicle id="25" depart="33.75">
        <route edges="gneE23 0/1to0/2 gneE7"/>
    </vehicle>
    <vehicle id="26" depart="35.10">
        <route edges="-gneE11 2/0to2/1"/>
    </vehicle>
    <vehicle id="27" depart="36.45">
        <route edges="gneE23 0/1to0/0 0/0to0/1 -gneE23"/>
    </vehicle>
    <vehicle id="28" depart="37.80">
        <route edges="-gneE5 0/2to1/2 1/2to2/2 gneE8"/>
    </vehicle>
    <vehicle id="29" depart="39.15">
        <route edges="gneE23 0/1to0/2 gneE5"/>
    </vehicle>
    <vehicle id="30" depart="40.50">
        <route edges="-gneE11 2/0to1/0 1/0to0/0 0/0to0/1 0/1to0/2 gneE5"/>
    </vehicle>
    <vehicle id="31" depart="41.85">
        <route edges="-gneE13 0/0to0/1 0/1to0/2 0/2to1/2 1/2to2/2 gneE9"/>
    </vehicle>
    <vehicle id="32" depart="43.20">
        <route edges="1/1to1/0 1/0to0/0 0/0to0/1 -gneE23"/>
    </vehicle>
    <vehicle id="33" depart="44.55">
        <route edges="-gneE8 2/2to1/2 1/2to1/1 1/1to1/0 1/0to2/0"/>
    </vehicle>
    <vehicle id="34" depart="45.90">
        <route edges="-gneE12 2/0to2/1 2/1to2/2 gneE8"/>
    </vehicle>
    <vehicle id="35" depart="47.25">
        <route edges="-gneE5 0/2to0/1 -gneE23"/>
    </vehicle>
    <vehicle id="36" depart="48.60">
        <route edges="gneE23 0/1to1/1 1/1to2/1 -gneE20"/>
    </vehicle>
    <vehicle id="37" depart="49.95">
        <route edges="gneE19 1/2to0/2 0/2to1/2 -gneE19"/>
    </vehicle>
    <vehicle id="38" depart="51.30">
        <route edges="-gneE9 2/2to1/2 1/2to1/1 1/1to2/1"/>
    </vehicle>
    <vehicle id="39" depart="52.65">
        <route edges="-gneE14 0/0to0/1 0/1to0/0 gneE14"/>
    </vehicle>
    <vehicle id="40" depart="54.00">
        <route edges="gneE23 0/1to0/2 gneE5"/>
    </vehicle>
    <vehicle id="41" depart="55.35">
        <route edges="-gneE14 gneE13"/>
    </vehicle>
    <vehicle id="42" depart="56.70">
        <route edges="gneE22 1/0to0/0 0/0to0/1 0/1to0/2 gneE7"/>
    </vehicle>
    <vehicle id="43" depart="58.05">
        <route edges="-gneE13 0/0to0/1 0/1to0/0 gneE13"/>
    </vehicle>
    <vehicle id="44" depart="59.40">
        <route edges="-gneE8 2/2to1/2 -gneE19"/>
    </vehicle>
    <vehicle id="45" depart="60.75">
        <route edges="gneE19 1/2to1/1 1/1to2/1 -gneE20"/>
    </vehicle>
    <vehicle id="46" depart="62.10">
        <route edges="-gneE5 0/2to0/1 0/1to1/1 1/1to2/1 -gneE20"/>
    </vehicle>
    <vehicle id="47" depart="63.45">
        <route edges="-gneE5 0/2to0/1 0/1to0/2 gneE5"/>
    </vehicle>
    <vehicle id="48" depart="64.80">
        <route edges="gneE23 0/1to0/0 gneE13"/>
    </vehicle>
    <vehicle id="49" depart="66.15">
        <route edges="-gneE13 0/0to0/1 0/1to0/0 gneE13"/>
    </vehicle>
    <vehicle id="50" depart="67.50">
        <route edges="gneE20 2/1to1/1 1/1to1/0 -gneE22"/>
    </vehicle>
    <vehicle id="51" depart="68.85">
        <route edges="-gneE13 0/0to1/0 1/0to2/0 gneE12"/>
    </vehicle>
    <vehicle id="52" depart="70.20">
        <route edges="-gneE7 0/2to0/1 0/1to0/0 0/0to1/0 1/0to2/0 gneE11"/>
    </vehicle>
    <vehicle id="53" depart="71.55">
        <route edges="2/0to2/1 2/1to1/1 1/1to0/1 -gneE23"/>
    </vehicle>
    <vehicle id="54" depart="72.90">
        <route edges="-gneE11 2/0to1/0 1/0to0/0 gneE14"/>
    </vehicle>
    <vehicle id="55" depart="74.25">
        <route edges="gneE23 0/1to0/0 0/0to0/1 -gneE23"/>
    </vehicle>
    <vehicle id="56" depart="75.60">
        <route edges="1/0to0/0 0/0to0/1 0/1to0/2 gneE5"/>
    </vehicle>
    <vehicle id="57" depart="76.95">
        <route edges="-gneE5 gneE7"/>
    </vehicle>
    <vehicle id="58" depart="78.30">
        <route edges="-gneE7 0/2to0/1 0/1to0/0 gneE14"/>
    </vehicle>
    <vehicle id="59" depart="79.65">
        <route edges="-gneE8 2/2to1/2 1/2to0/2 0/2to0/1 0/1to0/0 gneE14"/>
    </vehicle>
    <vehicle id="60" depart="81.00">
        <route edges="gneE23 0/1to0/0 gneE13"/>
    </vehicle>
    <vehicle id="61" depart="82.35">
        <route edges="gneE22 1/0to1/1 1/1to1/2 1/2to2/2 gneE9"/>
    </vehicle>
    <vehicle id="62" depart="83.70">
        <route edges="-gneE14 0/0to0/1 0/1to1/1 1/1to0/1"/>
    </vehicle>
    <vehicle id="63" depart="85.05">
        <route edges="-gneE5 0/2to1/2 1/2to2/2 gneE9"/>
    </vehicle>
    <vehicle id="64" depart="86.40">
        <route edges="-gneE11 gneE12"/>
    </vehicle>
    <vehicle id="65" depart="87.75">
        <route edges="1/0to2/0 2/0to1/0 1/0to0/0 gneE14"/>
    </vehicle>
    <vehicle id="66" depart="89.10">
        <route edges="gneE19 1/2to0/2 0/2to0/1 0/1to0/0 gneE13"/>
    </vehicle>
    <vehicle id="67" depart="90.45">
        <route edges="2/0to1/0 -gneE22"/>
    </vehicle>
    <vehicle id="68" depart="91.80">
        <route edges="gneE20 2/1to1/1 1/1to1/2 -gneE19"/>
    </vehicle>
    <vehicle id="69" depart="93.15">
        <route edges="gneE22 1/0to1/1 1/1to1/2 1/2to2/2 gneE9"/>
    </vehicle>
    <vehicle id="70" depart="94.50">
        <route edges="-gneE7 0/2to0/1 -gneE23"/>
    </vehicle>
    <vehicle id="71" depart="95.85">
        <route edges="-gneE11 2/0to2/1 2/1to2/2 gneE9"/>
    </vehicle>
    <vehicle id="72" depart="97.20">
        <route edges="gneE23 0/1to0/2 0/2to1/2 -gneE19"/>
    </vehicle>
    <vehicle id="73" depart="98.55">
        <route edges="-gneE5 0/2to0/1 0/1to0/0 0/0to1/0 -gneE22"/>
    </vehicle>
    <vehicle id="74" depart="99.90">
        <route edges="gneE20 2/1to2/2 gneE8"/>
    </vehicle>
    <vehicle id="75" depart="101.25">
        <route edges="-gneE13 0/0to1/0 1/0to2/0 2/0to1/0"/>
    </vehicle>
    <vehicle id="76" depart="102.60">
        <route edges="0/0to1/0 1/0to2/0 gneE12"/>
    </vehicle>
    <vehicle id="77" depart="103.95">
        <route edges="gneE20 2/1to2/0 gneE11"/>
    </vehicle>
    <vehicle id="78" depart="105.30">
        <route edges="gneE22 1/0to1/1 1/1to1/2 1/2to2/2 gneE9"/>
    </vehicle>
    <vehicle id="79" depart="106.65">
        <route edges="-gneE8 2/2to1/2 -gneE19"/>
    </vehicle>
    <vehicle id="80" depart="108.00">
        <route edges="gneE19 1/2to1/1 1/1to1/0 -gneE22"/>
    </vehicle>
    <vehicle id="81" depart="109.35">
        <route edges="gneE19 1/2to1/1 1/1to2/1 -gneE20"/>
    </vehicle>
    <vehicle id="82" depart="110.70">
        <route edges="gneE19 1/2to1/1 1/1to2/1 -gneE20"/>
    </vehicle>
    <vehicle id="83" depart="112.05">
        <route edges="gneE20 2/1to1/1 1/1to1/0 1/0to2/0"/>
    </vehicle>
    <vehicle id="84" depart="113.40">
        <route edges="-gneE13 0/0to1/0 -gneE22"/>
    </vehicle>
    <vehicle id="85" depart="114.75">
        <route edges="-gneE7 0/2to0/1 0/1to1/1 1/1to2/1"/>
    </vehicle>
    <vehicle id="86" depart="116.10">
        <route edges="-gneE13 gneE14"/>
    </vehicle>
    <vehicle id="87" depart="117.45">
        <route edges="-gneE12 2/0to1/0 1/0to2/0 gneE12"/>
    </vehicle>
    <vehicle id="88" depart="118.80">
        <route edges="gneE23 0/1to0/2 gneE7"/>
    </vehicle>
    <vehicle id="89" depart="120.15">
        <route edges="-gneE11 2/0to1/0 1/0to0/0 gneE13"/>
    </vehicle>
    <vehicle id="90" depart="121.50">
        <route edges="-gneE13 0/0to0/1 -gneE23"/>
    </vehicle>
    <vehicle id="91" depart="122.85">
        <route edges="-gneE11 2/0to2/1 2/1to2/2 gneE9"/>
    </vehicle>
    <vehicle id="92" depart="124.20">
        <route edges="gneE22 1/0to1/1 1/1to1/2 -gneE19"/>
    </vehicle>
    <vehicle id="93" depart="125.55">
        <route edges="gneE23 0/1to0/2 0/2to1/2 1/2to0/2"/>
    </vehicle>
    <vehicle id="94" depart="126.90">
        <route edges="-gneE11 gneE12"/>
    </vehicle>
    <vehicle id="95" depart="128.25">
        <route edges="-gneE5 0/2to0/1 0/1to0/0 0/0to1/0 1/0to2/0"/>
    </vehicle>
    <vehicle id="96" depart="129.60">
        <route edges="-gneE5 0/2to0/1 0/1to0/0 0/0to1/0 1/0to2/0 gneE12"/>
    </vehicle>
    <vehicle id="97" depart="130.95">
        <route edges="gneE19 1/2to2/2 gneE9"/>
    </vehicle>
    <vehicle id="98" depart="132.30">
        <route edges="-gneE12 2/0to1/0 1/0to0/0 gneE13"/>
    </vehicle>
    <vehicle id="99" depart="133.65">
        <route edges="gneE22 1/0to1/1 1/1to2/1 -gneE20"/>
    </vehicle>
    <vehicle id="100" depart="135.00">
        <route edges="-gneE11 2/0to2/1 -gneE20"/>
    </vehicle>
    <vehicle id="101" depart="136.35">
        <route edges="0/1to0/2 0/2to0/1 0/1to0/0 gneE13"/>
    </vehicle>
    <vehicle id="102" depart="137.70">
        <route edges="2/1to1/1 1/1to1/0 -gneE22"/>
    </vehicle>
    <vehicle id="103" depart="139.05">
        <route edges="1/0to1/1 1/1to1/2 1/2to2/2 gneE9"/>
    </vehicle>
    <vehicle id="104" depart="140.40">
        <route edges="2/1to1/1 1/1to2/1"/>
    </vehicle>
    <vehicle id="105" depart="141.75">
        <route edges="-gneE5 0/2to1/2 -gneE19"/>
    </vehicle>
    <vehicle id="106" depart="143.10">
        <route edges="-gneE12 2/0to2/1"/>
    </vehicle>
    <vehicle id="107" depart="144.45">
        <route edges="-gneE12 2/0to2/1 2/1to2/2 gneE9"/>
    </vehicle>
    <vehicle id="108" depart="145.80">
        <route edges="2/2to1/2 1/2to0/2 gneE5"/>
    </vehicle>
    <vehicle id="109" depart="147.15">
        <route edges="-gneE7 0/2to0/1 0/1to0/0 gneE13"/>
    </vehicle>
    <vehicle id="110" depart="148.50">
        <route edges="-gneE12 2/0to2/1 2/1to2/2 gneE9"/>
    </vehicle>
    <vehicle id="111" depart="149.85">
        <route edges="-gneE5 0/2to0/1 0/1to1/1 1/1to1/2"/>
    </vehicle>
    <vehicle id="112" depart="151.20">
        <route edges="2/2to2/1 2/1to1/1 1/1to1/2 1/2to2/2"/>
    </vehicle>
    <vehicle id="113" depart="152.55">
        <route edges="gneE19 1/2to0/2 0/2to0/1 0/1to0/0 0/0to1/0"/>
    </vehicle>
    <vehicle id="114" depart="153.90">
        <route edges="-gneE9 2/2to1/2 1/2to0/2 gneE5"/>
    </vehicle>
    <vehicle id="115" depart="155.25">
        <route edges="1/0to1/1 1/1to0/1 0/1to0/2 gneE7"/>
    </vehicle>
    <vehicle id="116" depart="156.60">
        <route edges="gneE23 0/1to1/1 1/1to0/1"/>
    </vehicle>
    <vehicle id="117" depart="157.95">
        <route edges="-gneE5 0/2to0/1 0/1to0/0 gneE14"/>
    </vehicle>
    <vehicle id="118" depart="159.30">
        <route edges="0/1to0/0 0/0to0/1 0/1to1/1 1/1to2/1 -gneE20"/>
    </vehicle>
    <vehicle id="119" depart="160.65">
        <route edges="-gneE8 2/2to1/2 1/2to0/2 0/2to0/1 0/1to0/0 gneE13"/>
    </vehicle>
    <vehicle id="120" depart="162.00">
        <route edges="0/1to0/0 0/0to0/1 0/1to1/1 1/1to2/1 2/1to2/2"/>
    </vehicle>
    <vehicle id="121" depart="163.35">
        <route edges="gneE19 1/2to2/2 gneE8"/>
    </vehicle>
    <vehicle id="122" depart="164.70">
        <route edges="-gneE13 0/0to0/1 0/1to0/2 0/2to1/2 1/2to2/2 gneE8"/>
    </vehicle>
    <vehicle id="123" depart="166.05">
        <route edges="1/2to2/2 2/2to1/2 1/2to0/2 0/2to0/1 0/1to0/0 gneE14"/>
    </vehicle>
    <vehicle id="124" depart="167.40">
        <route edges="0/1to0/0 0/0to1/0 -gneE22"/>
    </vehicle>
    <vehicle id="125" depart="168.75">
        <route edges="gneE23 0/1to0/0 0/0to1/0 1/0to2/0 gneE12"/>
    </vehicle>
    <vehicle id="126" depart="170.10">
        <route edges="1/1to2/1 2/1to1/1 1/1to0/1 0/1to0/0 gneE13"/>
    </vehicle>
    <vehicle id="127" depart="171.45">
        <route edges="-gneE7 0/2to1/2 -gneE19"/>
    </vehicle>
    <vehicle id="128" depart="172.80">
        <route edges="gneE20 2/1to1/1 1/1to0/1 0/1to0/0 gneE14"/>
    </vehicle>
    <vehicle id="129" depart="174.15">
        <route edges="-gneE11 2/0to1/0 1/0to0/0 0/0to1/0"/>
    </vehicle>
    <vehicle id="130" depart="175.50">
        <route edges="gneE23 0/1to1/1 1/1to2/1"/>
    </vehicle>
    <vehicle id="131" depart="176.85">
        <route edges="-gneE9 2/2to1/2 1/2to1/1 1/1to1/0 -gneE22"/>
    </vehicle>
    <vehicle id="132" depart="178.20">
        <route edges="gneE20 2/1to2/2 gneE8"/>
    </vehicle>
    <vehicle id="133" depart="179.55">
        <route edges="-gneE8 2/2to1/2 1/2to0/2 0/2to0/1 -gneE23"/>
    </vehicle>
    <vehicle id="134" depart="180.90">
        <route edges="-gneE11 gneE12"/>
    </vehicle>
    <vehicle id="135" depart="182.25">
        <route edges="-gneE8 2/2to1/2 1/2to2/2 gneE8"/>
    </vehicle>
    <vehicle id="136" depart="183.60">
        <route edges="-gneE8 2/2to2/1 -gneE20"/>
    </vehicle>
    <vehicle id="137" depart="184.95">
        <route edges="-gneE9 2/2to1/2 1/2to0/2 0/2to0/1 0/1to0/0 gneE13"/>
    </vehicle>
    <vehicle id="138" depart="186.30">
        <route edges="-gneE9 2/2to1/2 1/2to1/1 1/1to1/0 -gneE22"/>
    </vehicle>
    <vehicle id="139" depart="187.65">
        <route edges="-gneE11 2/0to2/1 2/1to1/1"/>
    </vehicle>
    <vehicle id="140" depart="189.00">
        <route edges="-gneE8 2/2to2/1 -gneE20"/>
    </vehicle>
    <vehicle id="141" depart="190.35">
        <route edges="-gneE14 0/0to0/1 0/1to0/2 0/2to1/2"/>
    </vehicle>
    <vehicle id="142" depart="191.70">
        <route edges="-gneE11 2/0to1/0 1/0to0/0 0/0to0/1 0/1to0/2 gneE7"/>
    </vehicle>
    <vehicle id="143" depart="193.05">
        <route edges="-gneE9 2/2to1/2 1/2to0/2 0/2to0/1 -gneE23"/>
    </vehicle>
    <vehicle id="144" depart="194.40">
        <route edges="-gneE9 2/2to2/1 2/1to2/0 gneE11"/>
    </vehicle>
    <vehicle id="145" depart="195.75">
        <route edges="-gneE13 0/0to0/1 0/1to0/0"/>
    </vehicle>
    <vehicle id="146" depart="197.10">
        <route edges="gneE19 1/2to0/2 0/2to0/1 0/1to0/0 gneE13"/>
    </vehicle>
    <vehicle id="147" depart="198.45">
        <route edges="-gneE7 0/2to0/1 0/1to1/1 1/1to2/1 -gneE20"/>
    </vehicle>
    <vehicle id="148" depart="199.80">
        <route edges="gneE20 2/1to1/1 1/1to0/1 0/1to0/0 gneE14"/>
    </vehicle>
    <vehicle id="149" depart="201.15">
        <route edges="1/2to0/2 0/2to0/1 -gneE23"/>
    </vehicle>
    <vehicle id="150" depart="202.50">
        <route edges="gneE23 0/1to0/2 0/2to1/2 -gneE19"/>
    </vehicle>
    <vehicle id="151" depart="203.85">
        <route edges="gneE20 2/1to2/2 gneE8"/>
    </vehicle>
    <vehicle id="152" depart="205.20">
        <route edges="gneE19 1/2to1/1 1/1to2/1 2/1to2/2"/>
    </vehicle>
    <vehicle id="153" depart="206.55">
        <route edges="-gneE12 2/0to1/0 1/0to0/0 gneE14"/>
    </vehicle>
    <vehicle id="154" depart="207.90">
        <route edges="gneE19 1/2to0/2 0/2to0/1"/>
    </vehicle>
    <vehicle id="155" depart="209.25">
        <route edges="-gneE11 2/0to2/1 2/1to2/2 gneE9"/>
    </vehicle>
    <vehicle id="156" depart="210.60">
        <route edges="-gneE13 0/0to0/1 0/1to1/1 1/1to2/1 -gneE20"/>
    </vehicle>
    <vehicle id="157" depart="211.95">
        <route edges="gneE23 0/1to0/0 0/0to0/1 -gneE23"/>
    </vehicle>
    <vehicle id="158" depart="213.30">
        <route edges="-gneE11 2/0to2/1 2/1to2/2 2/2to2/1"/>
    </vehicle>
    <vehicle id="159" depart="214.65">
        <route edges="-gneE7 0/2to1/2 -gneE19"/>
    </vehicle>
    <vehicle id="160" depart="216.00">
        <route edges="gneE19 1/2to1/1 1/1to1/0 1/0to2/0 gneE12"/>
    </vehicle>
    <vehicle id="161" depart="217.35">
        <route edges="-gneE14 0/0to0/1 0/1to1/1 1/1to2/1 2/1to1/1"/>
    </vehicle>
    <vehicle id="162" depart="218.70">
        <route edges="-gneE9 2/2to1/2 1/2to2/2 gneE9"/>
    </vehicle>
    <vehicle id="163" depart="220.05">
        <route edges="-gneE12 gneE11"/>
    </vehicle>
    <vehicle id="164" depart="221.40">
        <route edges="1/2to1/1 1/1to2/1 -gneE20"/>
    </vehicle>
    <vehicle id="165" depart="222.75">
        <route edges="-gneE7 0/2to0/1 0/1to0/0 0/0to1/0 1/0to1/1"/>
    </vehicle>
    <vehicle id="166" depart="224.10">
        <route edges="-gneE12 2/0to2/1 2/1to2/2 gneE9"/>
    </vehicle>
    <vehicle id="167" depart="225.45">
        <route edges="-gneE7 0/2to0/1 0/1to0/0 0/0to1/0 1/0to2/0 gneE12"/>
    </vehicle>
    <vehicle id="168" depart="226.80">
        <route edges="1/2to2/2 2/2to2/1 2/1to2/0 gneE11"/>
    </vehicle>
    <vehicle id="169" depart="228.15">
        <route edges="-gneE13 0/0to0/1 0/1to0/0 gneE13"/>
    </vehicle>
    <vehicle id="170" depart="229.50">
        <route edges="-gneE13 0/0to0/1 0/1to0/2 gneE7"/>
    </vehicle>
    <vehicle id="171" depart="230.85">
        <route edges="gneE20 2/1to1/1 1/1to1/2 1/2to0/2"/>
    </vehicle>
    <vehicle id="172" depart="232.20">
        <route edges="0/1to0/2 0/2to0/1 -gneE23"/>
    </vehicle>
    <vehicle id="173" depart="233.55">
        <route edges="gneE22 1/0to1/1 1/1to2/1 -gneE20"/>
    </vehicle>
    <vehicle id="174" depart="234.90">
        <route edges="-gneE5 0/2to0/1 0/1to0/0 0/0to1/0 1/0to2/0 gneE12"/>
    </vehicle>
    <vehicle id="175" depart="236.25">
        <route edges="2/1to2/0 2/0to1/0 1/0to1/1 1/1to1/2 1/2to0/2"/>
    </vehicle>
    <vehicle id="176" depart="237.60">
        <route edges="-gneE5 0/2to0/1 0/1to1/1 1/1to2/1 -gneE20"/>
    </vehicle>
    <vehicle id="177" depart="238.95">
        <route edges="0/2to0/1 0/1to0/0 gneE14"/>
    </vehicle>
    <vehicle id="178" depart="240.30">
        <route edges="-gneE7 0/2to0/1 0/1to0/0 0/0to1/0 1/0to2/0 2/0to1/0"/>
    </vehicle>
    <vehicle id="179" depart="241.65">
        <route edges="2/1to2/2 2/2to1/2 1/2to1/1 1/1to1/0 -gneE22"/>
    </vehicle>
    <vehicle id="180" depart="243.00">
        <route edges="-gneE5 0/2to1/2 -gneE19"/>
    </vehicle>
    <vehicle id="181" depart="244.35">
        <route edges="-gneE13 0/0to1/0"/>
    </vehicle>
    <vehicle id="182" depart="245.70">
        <route edges="1/1to0/1 0/1to0/2 gneE7"/>
    </vehicle>
    <vehicle id="183" depart="247.05">
        <route edges="-gneE7 0/2to1/2"/>
    </vehicle>
    <vehicle id="184" depart="248.40">
        <route edges="2/0to1/0 1/0to2/0 gneE11"/>
    </vehicle>
    <vehicle id="185" depart="249.75">
        <route edges="-gneE8 2/2to2/1 2/1to2/0 gneE12"/>
    </vehicle>
    <vehicle id="186" depart="251.10">
        <route edges="gneE22 1/0to2/0 gneE12"/>
    </vehicle>
    <vehicle id="187" depart="252.45">
        <route edges="gneE22 1/0to0/0 gneE14"/>
    </vehicle>
    <vehicle id="188" depart="253.80">
        <route edges="-gneE9 2/2to2/1 -gneE20"/>
    </vehicle>
    <vehicle id="189" depart="255.15">
        <route edges="-gneE7 0/2to0/1 0/1to1/1 1/1to2/1 2/1to2/2"/>
    </vehicle>
    <vehicle id="190" depart="256.50">
        <route edges="gneE20 2/1to1/1 1/1to0/1 0/1to0/2 0/2to1/2"/>
    </vehicle>
    <vehicle id="191" depart="257.85">
        <route edges="-gneE14 gneE13"/>
    </vehicle>
    <vehicle id="192" depart="259.20">
        <route edges="gneE23 0/1to0/0 0/0to1/0 1/0to2/0 gneE12"/>
    </vehicle>
    <vehicle id="193" depart="260.55">
        <route edges="-gneE14 0/0to0/1 0/1to0/0 gneE14"/>
    </vehicle>
    <vehicle id="194" depart="261.90">
        <route edges="-gneE5 0/2to0/1 0/1to0/0 0/0to1/0 1/0to2/0 gneE11"/>
    </vehicle>
    <vehicle id="195" depart="263.25">
        <route edges="-gneE14 0/0to0/1 0/1to1/1 1/1to2/1 -gneE20"/>
    </vehicle>
    <vehicle id="196" depart="264.60">
        <route edges="-gneE11 2/0to1/0 1/0to0/0 gneE14"/>
    </vehicle>
    <vehicle id="197" depart="265.95">
        <route edges="-gneE12 2/0to1/0 1/0to0/0 gneE14"/>
    </vehicle>
    <vehicle id="198" depart="267.30">
        <route edges="gneE20 2/1to1/1 1/1to1/0 -gneE22"/>
    </vehicle>
    <vehicle id="199" depart="268.65">
        <route edges="gneE23 0/1to0/2 0/2to1/2 1/2to2/2 gneE9"/>
    </vehicle>
    <vehicle id="200" depart="270.00">
        <route edges="gneE23 0/1to1/1 1/1to2/1 -gneE20"/>
    </vehicle>
    <vehicle id="201" depart="271.35">
        <route edges="-gneE13 0/0to1/0 -gneE22"/>
    </vehicle>
    <vehicle id="202" depart="272.70">
        <route edges="-gneE13 0/0to0/1 0/1to0/2 gneE5"/>
    </vehicle>
    <vehicle id="203" depart="274.05">
        <route edges="-gneE11 2/0to1/0 1/0to0/0 gneE13"/>
    </vehicle>
    <vehicle id="204" depart="275.40">
        <route edges="-gneE9 2/2to2/1 2/1to2/0 gneE12"/>
    </vehicle>
    <vehicle id="205" depart="276.75">
        <route edges="-gneE11 2/0to1/0 1/0to0/0 0/0to0/1 -gneE23"/>
    </vehicle>
    <vehicle id="206" depart="278.10">
        <route edges="-gneE9 2/2to1/2 1/2to0/2 0/2to0/1 0/1to0/0 gneE13"/>
    </vehicle>
    <vehicle id="207" depart="279.45">
        <route edges="1/0to2/0 gneE12"/>
    </vehicle>
    <vehicle id="208" depart="280.80">
        <route edges="2/1to1/1 1/1to2/1 -gneE20"/>
    </vehicle>
    <vehicle id="209" depart="282.15">
        <route edges="-gneE13 0/0to0/1 0/1to0/2 0/2to1/2 1/2to2/2 gneE8"/>
    </vehicle>
    <vehicle id="210" depart="283.50">
        <route edges="gneE22 1/0to0/0 gneE13"/>
    </vehicle>
    <vehicle id="211" depart="284.85">
        <route edges="-gneE8 2/2to2/1 -gneE20"/>
    </vehicle>
    <vehicle id="212" depart="286.20">
        <route edges="2/2to1/2 1/2to0/2 gneE7"/>
    </vehicle>
    <vehicle id="213" depart="287.55">
        <route edges="-gneE11 2/0to1/0 1/0to0/0 0/0to0/1 0/1to0/2 gneE7"/>
    </vehicle>
    <vehicle id="214" depart="288.90">
        <route edges="-gneE14 0/0to1/0 1/0to2/0 gneE12"/>
    </vehicle>
    <vehicle id="215" depart="290.25">
        <route edges="gneE20 2/1to1/1 1/1to1/0"/>
    </vehicle>
    <vehicle id="216" depart="291.60">
        <route edges="-gneE5 0/2to0/1 -gneE23"/>
    </vehicle>
    <vehicle id="217" depart="292.95">
        <route edges="2/1to2/2 gneE9"/>
    </vehicle>
    <vehicle id="218" depart="294.30">
        <route edges="-gneE11 2/0to2/1"/>
    </vehicle>
    <vehicle id="219" depart="295.65">
        <route edges="-gneE11 2/0to2/1"/>
    </vehicle>
    <vehicle id="220" depart="297.00">
        <route edges="-gneE7 0/2to0/1 0/1to1/1 1/1to2/1 -gneE20"/>
    </vehicle>
    <vehicle id="221" depart="298.35">
        <route edges="0/1to0/0 0/0to1/0 1/0to2/0 gneE11"/>
    </vehicle>
    <vehicle id="222" depart="299.70">
        <route edges="1/2to2/2 gneE8"/>
    </vehicle>
    <vehicle id="223" depart="301.05">
        <route edges="gneE23 0/1to0/0 0/0to0/1 -gneE23"/>
    </vehicle>
    <vehicle id="224" depart="302.40">
        <route edges="-gneE5 0/2to0/1 -gneE23"/>
    </vehicle>
    <vehicle id="225" depart="303.75">
        <route edges="-gneE11 2/0to1/0 1/0to0/0 0/0to0/1 0/1to0/2 gneE7"/>
    </vehicle>
    <vehicle id="226" depart="305.10">
        <route edges="-gneE14 0/0to0/1 -gneE23"/>
    </vehicle>
    <vehicle id="227" depart="306.45">
        <route edges="gneE22 1/0to2/0 gneE12"/>
    </vehicle>
    <vehicle id="228" depart="307.80">
        <route edges="-gneE9 2/2to2/1 -gneE20"/>
    </vehicle>
    <vehicle id="229" depart="309.15">
        <route edges="2/0to1/0 1/0to1/1 1/1to2/1 -gneE20"/>
    </vehicle>
    <vehicle id="230" depart="310.50">
        <route edges="gneE23 0/1to1/1 1/1to2/1 -gneE20"/>
    </vehicle>
    <vehicle id="231" depart="311.85">
        <route edges="-gneE13 0/0to0/1 0/1to0/2 0/2to1/2 1/2to2/2 gneE8"/>
    </vehicle>
    <vehicle id="232" depart="313.20">
        <route edges="-gneE14 0/0to0/1 0/1to0/2 gneE7"/>
    </vehicle>
    <vehicle id="233" depart="314.55">
        <route edges="-gneE11 2/0to1/0 1/0to1/1 1/1to1/2 -gneE19"/>
    </vehicle>
    <vehicle id="234" depart="315.90">
        <route edges="gneE23 0/1to0/0 gneE14"/>
    </vehicle>
    <vehicle id="235" depart="317.25">
        <route edges="-gneE12 2/0to1/0 1/0to0/0 gneE13"/>
    </vehicle>
    <vehicle id="236" depart="318.60">
        <route edges="-gneE12 2/0to1/0 1/0to0/0 gneE13"/>
    </vehicle>
    <vehicle id="237" depart="319.95">
        <route edges="gneE22 1/0to1/1 1/1to1/2 1/2to1/1"/>
    </vehicle>
    <vehicle id="238" depart="321.30">
        <route edges="gneE22 1/0to0/0 0/0to1/0 -gneE22"/>
    </vehicle>
    <vehicle id="239" depart="322.65">
        <route edges="gneE19 1/2to1/1 1/1to1/0 -gneE22"/>
    </vehicle>
    <vehicle id="240" depart="324.00">
        <route edges="-gneE11 2/0to1/0 -gneE22"/>
    </vehicle>
    <vehicle id="241" depart="325.35">
        <route edges="-gneE9 2/2to2/1 -gneE20"/>
    </vehicle>
    <vehicle id="242" depart="326.70">
        <route edges="-gneE7 0/2to1/2 1/2to2/2 gneE8"/>
    </vehicle>
    <vehicle id="243" depart="328.05">
        <route edges="0/1to0/2 0/2to1/2 1/2to2/2 gneE9"/>
    </vehicle>
    <vehicle id="244" depart="329.40">
        <route edges="-gneE12 2/0to1/0 1/0to0/0 0/0to0/1 0/1to0/2 gneE7"/>
    </vehicle>
    <vehicle id="245" depart="330.75">
        <route edges="-gneE5 0/2to1/2 1/2to2/2 gneE8"/>
    </vehicle>
    <vehicle id="246" depart="332.10">
        <route edges="-gneE13 0/0to1/0 1/0to2/0 gneE12"/>
    </vehicle>
    <vehicle id="247" depart="333.45">
        <route edges="-gneE13 0/0to1/0 1/0to2/0 2/0to1/0"/>
    </vehicle>
    <vehicle id="248" depart="334.80">
        <route edges="-gneE9 2/2to1/2 1/2to0/2 0/2to0/1 -gneE23"/>
    </vehicle>
    <vehicle id="249" depart="336.15">
        <route edges="gneE22 1/0to2/0 gneE11"/>
    </vehicle>
    <vehicle id="250" depart="337.50">
        <route edges="gneE23 0/1to0/2 0/2to1/2 1/2to2/2 gneE8"/>
    </vehicle>
    <vehicle id="251" depart="338.85">
        <route edges="-gneE13 0/0to1/0 1/0to2/0 gneE11"/>
    </vehicle>
    <vehicle id="252" depart="340.20">
        <route edges="1/0to0/0 0/0to1/0 1/0to2/0 gneE12"/>
    </vehicle>
    <vehicle id="253" depart="341.55">
        <route edges="-gneE8 2/2to2/1 2/1to2/0 gneE11"/>
    </vehicle>
    <vehicle id="254" depart="342.90">
        <route edges="-gneE14 0/0to1/0 1/0to2/0 gneE11"/>
    </vehicle>
    <vehicle id="255" depart="344.25">
        <route edges="-gneE13 0/0to1/0 1/0to2/0 gneE12"/>
    </vehicle>
    <vehicle id="256" depart="345.60">
        <route edges="1/2to1/1 1/1to2/1 2/1to1/1"/>
    </vehicle>
    <vehicle id="257" depart="346.95">
        <route edges="gneE19 1/2to1/1 1/1to1/2"/>
    </vehicle>
    <vehicle id="258" depart="348.30">
        <route edges="-gneE7 gneE5"/>
    </vehicle>
    <vehicle id="259" depart="349.65">
        <route edges="-gneE8 2/2to2/1 2/1to2/0 gneE11"/>
    </vehicle>
    <vehicle id="260" depart="351.00">
        <route edges="0/0to0/1 0/1to1/1 1/1to1/2"/>
    </vehicle>
    <vehicle id="261" depart="352.35">
        <route edges="-gneE13 gneE14"/>
    </vehicle>
    <vehicle id="262" depart="353.70">