<?xml version="1.0" encoding="UTF-8"?>

<!-- generated on Fri Jun 29 22:41:15 2018 by SUMO duarouter Version 0.30.0
<?xml version="1.0" encoding="UTF-8"?>

<configuration xmlns:xsi="http://www.w3.org/2001/XMLSchema-instance" xsi:noNamespaceSchemaLocation="http://sumo.dlr.de/xsd/duarouterConfiguration.xsd">

    <input>
        <net-file value="new_manhattan/new_manhattan.net.xml"/>
        <route-files value="trips.trips.xml"/>
    </input>

    <output>
        <output-file value="new_manhattan/route/new_manhattan-1.7-1.rou.xml"/>
    </output>

    <processing>
        <ignore-errors value="true"/>
    </processing>

    <time>
        <begin value="0.0"/>
        <end value="5400.0"/>
    </time>

    <report>
        <no-warnings value="true"/>
        <no-step-log value="true"/>
    </report>

</configuration>
-->

<routes xmlns:xsi="http://www.w3.org/2001/XMLSchema-instance" xsi:noNamespaceSchemaLocation="http://sumo.dlr.de/xsd/routes_file.xsd">
    <vehicle id="0" depart="0.00">
        <route edges="1/0to2/0 2/0to1/0 1/0to0/0 0/0to0/1 -gneE23"/>
    </vehicle>
    <vehicle id="1" depart="1.70">
        <route edges="-gneE5 0/2to1/2"/>
    </vehicle>
    <vehicle id="2" depart="3.40">
        <route edges="-gneE11 2/0to1/0 1/0to0/0 0/0to0/1 -gneE23"/>
    </vehicle>
    <vehicle id="3" depart="5.10">
        <route edges="gneE20 2/1to1/1 1/1to1/2 1/2to1/1"/>
    </vehicle>
    <vehicle id="4" depart="6.80">
        <route edges="-gneE9 2/2to1/2 1/2to0/2 gneE5"/>
    </vehicle>
    <vehicle id="5" depart="8.50">
        <route edges="0/1to0/0 0/0to0/1 0/1to0/2 0/2to1/2 1/2to2/2 gneE8"/>
    </vehicle>
    <vehicle id="6" depart="10.20">
        <route edges="-gneE7 0/2to0/1 0/1to1/1"/>
    </vehicle>
    <vehicle id="7" depart="11.90">
        <route edges="1/2to0/2 0/2to0/1 0/1to0/0 gneE13"/>
    </vehicle>
    <vehicle id="8" depart="13.60">
        <route edges="2/1to2/0 2/0to1/0 1/0to0/0 0/0to1/0"/>
    </vehicle>
    <vehicle id="9" depart="15.30">
        <route edges="-gneE12 2/0to1/0 1/0to0/0 0/0to0/1 0/1to0/2 gneE5"/>
    </vehicle>
    <vehicle id="10" depart="17.00">
        <route edges="gneE20 2/1to1/1 1/1to0/1 0/1to0/2 gneE5"/>
    </vehicle>
    <vehicle id="11" depart="18.70">
        <route edges="1/0to1/1 1/1to1/2 1/2to2/2 gneE8"/>
    </vehicle>
    <vehicle id="12" depart="20.40">
        <route edges="gneE19 1/2to1/1 1/1to1/0 1/0to2/0 gneE12"/>
    </vehicle>
    <vehicle id="13" depart="22.10">
        <route edges="-gneE5 0/2to0/1 0/1to0/0 0/0to1/0 1/0to2/0 gneE11"/>
    </vehicle>
    <vehicle id="14" depart="23.80">
        <route edges="2/0to2/1 2/1to1/1 1/1to0/1 -gneE23"/>
    </vehicle>
    <vehicle id="15" depart="25.50">
        <route edges="-gneE7 0/2to0/1 0/1to0/0 0/0to1/0 1/0to2/0 gneE12"/>
    </vehicle>
    <vehicle id="16" depart="27.20">
        <route edges="-gneE13 0/0to0/1 0/1to0/2 0/2to1/2 1/2to2/2 gneE8"/>
    </vehicle>
    <vehicle id="17" depart="28.90">
        <route edges="-gneE14 0/0to1/0 1/0to0/0"/>
    </vehicle>
    <vehicle id="18" depart="30.60">
        <route edges="1/2to2/2 gneE8"/>
    </vehicle>
    <vehicle id="19" depart="32.30">
        <route edges="gneE23 0/1to0/2 0/2to1/2 1/2to2/2 gneE9"/>
    </vehicle>
    <vehicle id="20" depart="34.00">
        <route edges="-gneE11 2/0to1/0 1/0to0/0 0/0to0/1 -gneE23"/>
    </vehicle>
    <vehicle id="21" depart="35.70">
        <route edges="2/2to2/1 2/1to1/1 1/1to1/2 -gneE19"/>
    </vehicle>
    <vehicle id="22" depart="37.40">
        <route edges="0/0to1/0 1/0to1/1 1/1to1/2 1/2to2/2 gneE9"/>
    </vehicle>
    <vehicle id="23" depart="39.10">
        <route edges="gneE20 2/1to2/0 gneE12"/>
    </vehicle>
    <vehicle id="24" depart="40.80">
        <route edges="2/0to2/1 2/1to1/1 1/1to0/1 -gneE23"/>
    </vehicle>
    <vehicle id="25" depart="42.50">
        <route edges="-gneE8 2/2to1/2 -gneE19"/>
    </vehicle>
    <vehicle id="26" depart="44.20">
        <route edges="gneE23 0/1to0/2 0/2to1/2 1/2to2/2 gneE9"/>
    </vehicle>
    <vehicle id="27" depart="45.90">
        <route edges="-gneE14 0/0to0/1 0/1to1/1 1/1to2/1 2/1to2/0"/>
    </vehicle>
    <vehicle id="28" depart="47.60">
        <route edges="-gneE14 0/0to1/0 1/0to2/0 gneE12"/>
    </vehicle>
    <vehicle id="29" depart="49.30">
        <route edges="gneE20 2/1to2/0 gneE11"/>
    </vehicle>
    <vehicle id="30" depart="51.00">
        <route edges="-gneE13 0/0to0/1 0/1to0/2 gneE7"/>
    </vehicle>
    <vehicle id="31" depart="52.70">
        <route edges="-gneE13 0/0to0/1 0/1to0/0 gneE13"/>
    </vehicle>
    <vehicle id="32" depart="54.40">
        <route edges="-gneE13 0/0to0/1 0/1to1/1 1/1to1/2"/>
    </vehicle>
    <vehicle id="33" depart="56.10">
        <route edges="-gneE14 0/0to1/0 1/0to2/0 gneE12"/>
    </vehicle>
    <vehicle id="34" depart="57.80">
        <route edges="-gneE13 0/0to1/0 1/0to2/0 gneE12"/>
    </vehicle>
    <vehicle id="35" depart="59.50">
        <route edges="-gneE8 2/2to1/2 1/2to1/1 1/1to1/0 -gneE22"/>
    </vehicle>
    <vehicle id="36" depart="61.20">
        <route edges="gneE22 1/0to0/0 0/0to0/1 0/1to0/2 gneE7"/>
    </vehicle>
    <vehicle id="37" depart="62.90">
        <route edges="gneE19 1/2to1/1 1/1to1/0 1/0to2/0 gneE11"/>
    </vehicle>
    <vehicle id="38" depart="64.60">
        <route edges="-gneE8 gneE9"/>
    </vehicle>
    <vehicle id="39" depart="66.30">
        <route edges="-gneE9 2/2to1/2 1/2to0/2 0/2to0/1 -gneE23"/>
    </vehicle>
    <vehicle id="40" depart="68.00">
        <route edges="gneE19 1/2to0/2 0/2to1/2 -gneE19"/>
    </vehicle>
    <vehicle id="41" depart="69.70">
        <route edges="-gneE9 2/2to1/2 1/2to1/1 1/1to1/0 -gneE22"/>
    </vehicle>
    <vehicle id="42" depart="71.40">
        <route edges="-gneE14 0/0to1/0 1/0to2/0 gneE12"/>
    </vehicle>
    <vehicle id="43" depart="73.10">
        <route edges="-gneE5 0/2to1/2 -gneE19"/>
    </vehicle>
    <vehicle id="44" depart="74.80">
        <route edges="-gneE12 2/0to1/0 1/0to0/0 0/0to0/1 0/1to0/2 gneE5"/>
    </vehicle>
    <vehicle id="45" depart="76.50">
        <route edges="2/1to2/0 2/0to1/0 1/0to0/0 gneE14"/>
    </vehicle>
    <vehicle id="46" depart="78.20">
        <route edges="-gneE14 0/0to1/0 -gneE22"/>
    </vehicle>
    <vehicle id="47" depart="79.90">
        <route edges="2/1to2/2 gneE8"/>
    </vehicle>
    <vehicle id="48" depart="81.60">
        <route edges="-gneE12 2/0to1/0 -gneE22"/>
    </vehicle>
    <vehicle id="49" depart="83.30">
        <route edges="-gneE9 2/2to1/2 1/2to0/2 0/2to0/1 0/1to0/0 gneE13"/>
    </vehicle>
    <vehicle id="50" depart="85.00">
        <route edges="-gneE9 2/2to1/2 1/2to0/2 0/2to0/1 -gneE23"/>
    </vehicle>
    <vehicle id="51" depart="86.70">
        <route edges="-gneE13 gneE14"/>
    </vehicle>
    <vehicle id="52" depart="88.40">
        <route edges="-gneE5 0/2to0/1 0/1to0/0 0/0to1/0 1/0to2/0 gneE12"/>
    </vehicle>
    <vehicle id="53" depart="90.10">
        <route edges="-gneE11 2/0to2/1 2/1to2/2 2/2to1/2"/>
    </vehicle>
    <vehicle id="54" depart="91.80">
        <route edges="-gneE14 0/0to0/1 0/1to0/2 gneE5"/>
    </vehicle>
    <vehicle id="55" depart="93.50">
        <route edges="-gneE14 0/0to0/1 0/1to0/2 0/2to1/2 -gneE19"/>
    </vehicle>
    <vehicle id="56" depart="95.20">
        <route edges="-gneE8 2/2to1/2 1/2to0/2 0/2to0/1 0/1to0/0 gneE14"/>
    </vehicle>
    <vehicle id="57" depart="96.90">
        <route edges="gneE22 1/0to1/1 1/1to1/2 1/2to2/2 gneE8"/>
    </vehicle>
    <vehicle id="58" depart="98.60">
        <route edges="-gneE13 0/0to0/1 0/1to0/2 gneE5"/>
    </vehicle>
    <vehicle id="59" depart="100.30">
        <route edges="-gneE7 0/2to0/1 0/1to0/0 gneE14"/>
    </vehicle>
    <vehicle id="60" depart="102.00">
        <route edges="gneE23 0/1to0/0"/>
    </vehicle>
    <vehicle id="61" depart="103.70">
        <route edges="-gneE11 2/0to1/0 1/0to0/0 0/0to0/1 -gneE23"/>
    </vehicle>
    <vehicle id="62" depart="105.40">
        <route edges="-gneE8 2/2to2/1 2/1to2/0 gneE12"/>
    </vehicle>
    <vehicle id="63" depart="107.10">
        <route edges="-gneE9 2/2to2/1 -gneE20"/>
    </vehicle>
    <vehicle id="64" depart="108.80">
        <route edges="gneE20 2/1to1/1 1/1to2/1 -gneE20"/>
    </vehicle>
    <vehicle id="65" depart="110.50">
        <route edges="gneE20 2/1to1/1 1/1to2/1 -gneE20"/>
    </vehicle>
    <vehicle id="66" depart="112.20">
        <route edges="gneE22 1/0to0/0 0/0to0/1 0/1to0/2 gneE7"/>
    </vehicle>
    <vehicle id="67" depart="113.90">
        <route edges="-gneE8 2/2to2/1 2/1to2/0 gneE11"/>
    </vehicle>
    <vehicle id="68" depart="115.60">
        <route edges="-gneE5 0/2to0/1 0/1to0/0 gneE13"/>
    </vehicle>
    <vehicle id="69" depart="117.30">
        <route edges="-gneE11 2/0to1/0 1/0to0/0 gneE14"/>
    </vehicle>
    <vehicle id="70" depart="119.00">
        <route edges="gneE20 2/1to1/1 1/1to0/1 0/1to0/0 0/0to0/1"/>
    </vehicle>
    <vehicle id="71" depart="120.70">
        <route edges="-gneE11 2/0to2/1 2/1to2/2 gneE8"/>
    </vehicle>
    <vehicle id="72" depart="122.40">
        <route edges="-gneE8 2/2to1/2 1/2to0/2 0/2to0/1 0/1to0/0 gneE13"/>
    </vehicle>
    <vehicle id="73" depart="124.10">
        <route edges="-gneE11 2/0to1/0 1/0to0/0 0/0to0/1 -gneE23"/>
    </vehicle>
    <vehicle id="74" depart="125.80">
        <route edges="gneE23 0/1to0/2 gneE7"/>
    </vehicle>
    <vehicle id="75" depart="127.50">
        <route edges="-gneE11 2/0to2/1"/>
    </vehicle>
    <vehicle id="76" depart="129.20">
        <route edges="-gneE9 2/2to1/2 1/2to1/1 1/1to1/0 1/0to1/1"/>
    </vehicle>
    <vehicle id="77" depart="130.90">
        <route edges="-gneE8 2/2to1/2 1/2to0/2 0/2to0/1 -gneE23"/>
    </vehicle>
    <vehicle id="78" depart="132.60">
        <route edges="-gneE13 0/0to0/1 0/1to0/2 0/2to1/2 1/2to2/2 gneE9"/>
    </vehicle>
    <vehicle id="79" depart="134.30">
        <route edges="-gneE14 0/0to0/1 0/1to0/2 0/2to1/2 1/2to2/2 gneE8"/>
    </vehicle>
    <vehicle id="80" depart="136.00">
        <route edges="-gneE8 2/2to1/2 1/2to0/2 0/2to0/1 -gneE23"/>
    </vehicle>
    <vehicle id="81" depart="137.70">
        <route edges="gneE20 2/1to2/2 gneE9"/>
    </vehicle>
    <vehicle id="82" depart="139.40">
        <route edges="1/2to0/2 0/2to0/1 0/1to0/2"/>
    </vehicle>
    <vehicle id="83" depart="141.10">
        <route edges="-gneE8 2/2to1/2 1/2to1/1 1/1to1/0 -gneE22"/>
    </vehicle>
    <vehicle id="84" depart="142.80">
        <route edges="-gneE11 2/0to2/1 2/1to2/2 gneE8"/>
    </vehicle>
    <vehicle id="85" depart="144.50">
        <route edges="0/1to0/0 0/0to1/0 1/0to2/0 gneE12"/>
    </vehicle>
    <vehicle id="86" depart="146.20">
        <route edges="gneE22 1/0to1/1 1/1to2/1 -gneE20"/>
    </vehicle>
    <vehicle id="87" depart="147.90">
        <route edges="-gneE7 0/2to0/1 0/1to0/0 0/0to1/0 1/0to2/0 gneE12"/>
    </vehicle>
    <vehicle id="88" depart="149.60">
        <route edges="-gneE13 0/0to0/1 0/1to0/2 0/2to1/2 1/2to2/2 gneE9"/>
    </vehicle>
    <vehicle id="89" depart="151.30">
        <route edges="-gneE14 0/0to0/1 0/1to0/2 0/2to1/2 1/2to2/2 gneE8"/>
    </vehicle>
    <vehicle id="90" depart="153.00">
        <route edges="gneE22 1/0to1/1 1/1to1/2 1/2to2/2 gneE9"/>
    </vehicle>
    <vehicle id="91" depart="154.70">
        <route edges="-gneE11 2/0to1/0 1/0to0/0 0/0to0/1 -gneE23"/>
    </vehicle>
    <vehicle id="92" depart="156.40">
        <route edges="0/2to1/2 1/2to1/1 1/1to1/0 1/0to2/0 gneE11"/>
    </vehicle>
    <vehicle id="93" depart="158.10">
        <route edges="-gneE7 0/2to0/1 0/1to1/1 1/1to2/1 -gneE20"/>
    </vehicle>
    <vehicle id="94" depart="159.80">
        <route edges="gneE22 1/0to0/0 0/0to0/1 -gneE23"/>
    </vehicle>
    <vehicle id="95" depart="161.50">
        <route edges="-gneE9 2/2to1/2 -gneE19"/>
    </vehicle>
    <vehicle id="96" depart="163.20">
        <route edges="gneE22 1/0to2/0 gneE11"/>
    </vehicle>
    <vehicle id="97" depart="164.90">
        <route edges="gneE19 1/2to0/2 gneE5"/>
    </vehicle>
    <vehicle id="98" depart="166.60">
        <route edges="-gneE14 0/0to0/1 0/1to0/2 0/2to1/2 1/2to2/2"/>
    </vehicle>
    <vehicle id="99" depart="168.30">
        <route edges="gneE19 1/2to0/2 0/2to0/1 0/1to0/0 gneE14"/>
    </vehicle>
    <vehicle id="100" depart="170.00">
        <route edges="gneE22 1/0to1/1 1/1to2/1 -gneE20"/>
    </vehicle>
    <vehicle id="101" depart="171.70">
        <route edges="-gneE12 2/0to1/0 -gneE22"/>
    </vehicle>
    <vehicle id="102" depart="173.40">
        <route edges="-gneE5 0/2to0/1 0/1to0/0 0/0to1/0 1/0to2/0 gneE12"/>
    </vehicle>
    <vehicle id="103" depart="175.10">
        <route edges="0/1to0/2 0/2to0/1 0/1to0/0 gneE14"/>
    </vehicle>
    <vehicle id="104" depart="176.80">
        <route edges="-gneE13 0/0to0/1 0/1to0/2"/>
    </vehicle>
    <vehicle id="105" depart="178.50">
        <route edges="2/2to2/1 2/1to1/1 1/1to1/0 -gneE22"/>
    </vehicle>
    <vehicle id="106" depart="180.20">
        <route edges="0/2to0/1 0/1to0/2 0/2to1/2 -gneE19"/>
    </vehicle>
    <vehicle id="107" depart="181.90">
        <route edges="-gneE12 2/0to1/0 -gneE22"/>
    </vehicle>
    <vehicle id="108" depart="183.60">
        <route edges="-gneE12 2/0to1/0 1/0to0/0 0/0to0/1 0/1to0/2 gneE5"/>
    </vehicle>
    <vehicle id="109" depart="185.30">
        <route edges="-gneE12 2/0to1/0 1/0to0/0 0/0to1/0"/>
    </vehicle>
    <vehicle id="110" depart="187.00">
        <route edges="-gneE8 2/2to1/2 1/2to0/2 gneE7"/>
    </vehicle>
    <vehicle id="111" depart="188.70">
        <route edges="-gneE12 2/0to1/0 1/0to0/0 0/0to0/1 0/1to0/2 gneE5"/>
    </vehicle>
    <vehicle id="112" depart="190.40">
        <route edges="-gneE5 0/2to0/1 0/1to1/1 1/1to2/1 -gneE20"/>
    </vehicle>
    <vehicle id="113" depart="192.10">
        <route edges="-gneE7 0/2to0/1 0/1to0/0 0/0to1/0 1/0to2/0 gneE12"/>
    </vehicle>
    <vehicle id="114" depart="193.80">
        <route edges="-gneE7 0/2to0/1 0/1to1/1 1/1to1/0"/>
    </vehicle>
    <vehicle id="115" depart="195.50">
        <route edges="-gneE7 0/2to0/1 0/1to0/0 0/0to1/0 1/0to2/0 gneE12"/>
    </vehicle>
    <vehicle id="116" depart="197.20">
        <route edges="-gneE13 0/0to0/1 0/1to0/2 0/2to1/2 1/2to2/2 gneE8"/>
    </vehicle>
    <vehicle id="117" depart="198.90">
        <route edges="-gneE13 0/0to0/1 -gneE23"/>
    </vehicle>
    <vehicle id="118" depart="200.60">
        <route edges="-gneE13 gneE14"/>
    </vehicle>
    <vehicle id="119" depart="202.30">
        <route edges="-gneE7 0/2to0/1 0/1to0/0 gneE14"/>
    </vehicle>
    <vehicle id="120" depart="204.00">
        <route edges="-gneE7 0/2to0/1 0/1to1/1 1/1to0/1"/>
    </vehicle>
    <vehicle id="121" depart="205.70">
        <route edges="-gneE13 0/0to0/1 0/1to0/2 gneE7"/>
    </vehicle>
    <vehicle id="122" depart="207.40">
        <route edges="gneE22 1/0to0/0 0/0to1/0 -gneE22"/>
    </vehicle>
    <vehicle id="123" depart="209.10">
        <route edges="-gneE7 0/2to1/2 1/2to2/2 gneE8"/>
    </vehicle>
    <vehicle id="124" depart="210.80">
        <route edges="gneE20 2/1to2/2 gneE9"/>
    </vehicle>
    <vehicle id="125" depart="212.50">
        <route edges="0/0to0/1 -gneE23"/>
    </vehicle>
    <vehicle id="126" depart="214.20">
        <route edges="2/1to1/1 1/1to0/1 0/1to0/0 gneE14"/>
    </vehicle>
    <vehicle id="127" depart="215.90">
        <route edges="gneE22 1/0to0/0 0/0to1/0 -gneE22"/>
    </vehicle>
    <vehicle id="128" depart="217.60">
        <route edges="1/2to0/2 0/2to1/2 1/2to2/2 gneE9"/>
    </vehicle>
    <vehicle id="129" depart="219.30">
        <route edges="-gneE5 0/2to1/2 1/2to2/2 gneE8"/>
    </vehicle>
    <vehicle id="130" depart="221.00">
        <route edges="-gneE13 0/0to0/1 0/1to0/2 0/2to1/2 -gneE19"/>
    </vehicle>
    <vehicle id="131" depart="222.70">
        <route edges="gneE22 1/0to2/0"/>
    </vehicle>
    <vehicle id="132" depart="224.40">
        <route edges="-gneE13 0/0to0/1 0/1to1/1 1/1to2/1 -gneE20"/>
    </vehicle>
    <vehicle id="133" depart="226.10">
        <route edges="gneE19 1/2to1/1 1/1to1/0 1/0to0/0"/>
    </vehicle>
    <vehicle id="134" depart="227.80">
        <route edges="-gneE5 0/2to0/1 0/1to0/0 gneE13"/>
    </vehicle>
    <vehicle id="135" depart="229.50">
        <route edges="1/2to0/2 0/2to1/2 -gneE19"/>
    </vehicle>
    <vehicle id="136" depart="231.20">
        <route edges="-gneE13 0/0to0/1 0/1to0/2 gneE5"/>
    </vehicle>
    <vehicle id="137" depart="232.90">
        <route edges="-gneE14 0/0to1/0 1/0to2/0 gneE12"/>
    </vehicle>
    <vehicle id="138" depart="234.60">
        <route edges="-gneE11 2/0to1/0 1/0to0/0 0/0to0/1 -gneE23"/>
    </vehicle>
    <vehicle id="139" depart="236.30">
        <route edges="-gneE5 0/2to1/2 1/2to2/2 gneE8"/>
    </vehicle>
    <vehicle id="140" depart="238.00">
        <route edges="gneE23 0/1to0/0 0/0to1/0 1/0to2/0 gneE11"/>
    </vehicle>
    <vehicle id="141" depart="239.70">
        <route edges="-gneE11 2/0to1/0 -gneE22"/>
    </vehicle>
    <vehicle id="142" depart="241.40">
        <route edges="-gneE11 2/0to1/0 1/0to0/0 0/0to0/1 0/1to0/0"/>
    </vehicle>
    <vehicle id="143" depart="243.10">
        <route edges="-gneE12 2/0to1/0 1/0to1/1 1/1to1/2 -gneE19"/>
    </vehicle>
    <vehicle id="144" depart="244.80">
        <route edges="gneE19 1/2to0/2 gneE7"/>
    </vehicle>
    <vehicle id="145" depart="246.50">
        <route edges="-gneE8 2/2to1/2 1/2to0/2 0/2to0/1 0/1to0/0 gneE14"/>
    </vehicle>
    <vehicle id="146" depart="248.20">
        <route edges="-gneE11 2/0to1/0 1/0to0/0 0/0to0/1 -gneE23"/>
    </vehicle>
    <vehicle id="147" depart="249.90">
        <route edges="-gneE14 0/0to1/0 -gneE22"/>
    </vehicle>
    <vehicle id="148" depart="251.60">
        <route edges="1/0to1/1 1/1to1/2 -gneE19"/>
    </vehicle>
    <vehicle id="149" depart="253.30">
        <route edges="-gneE7 0/2to0/1 0/1to0/0 0/0to1/0 -gneE22"/>
    </vehicle>
    <vehicle id="150" depart="255.00">
        <route edges="-gneE5 0/2to0/1 -gneE23"/>
    </vehicle>
    <vehicle id="151" depart="256.70">
        <route edges="-gneE7 0/2to1/2 -gneE19"/>
    </vehicle>
    <vehicle id="152" depart="258.40">
        <route edges="1/0to1/1 1/1to0/1 0/1to0/0 gneE13"/>
    </vehicle>
    <vehicle id="153" depart="260.10">
        <route edges="-gneE8 2/2to1/2 1/2to0/2 0/2to1/2"/>
    </vehicle>
    <vehicle id="154" depart="261.80">
        <route edges="-gneE13 0/0to1/0 1/0to2/0 gneE11"/>
    </vehicle>
    <vehicle id="155" depart="263.50">
        <route edges="gneE19 1/2to2/2 gneE8"/>
    </vehicle>
    <vehicle id="156" depart="265.20">
        <route edges="-gneE12 2/0to1/0 1/0to0/0 gneE14"/>
    </vehicle>
    <vehicle id="157" depart="266.90">
        <route edges="-gneE5 0/2to0/1 0/1to0/0 0/0to1/0"/>
    </vehicle>
    <vehicle id="158" depart="268.60">
        <route edges="-gneE8 2/2to1/2 1/2to0/2 0/2to0/1 0/1to0/0 gneE14"/>
    </vehicle>
    <vehicle id="159" depart="270.30">
        <route edges="-gneE5 0/2to1/2 1/2to2/2 gneE9"/>
    </vehicle>
    <vehicle id="160" depart="272.00">
        <route edges="gneE19 1/2to0/2 gneE7"/>
    </vehicle>
    <vehicle id="161" depart="273.70">
        <route edges="2/0to1/0 1/0to2/0 gneE11"/>
    </vehicle>
    <vehicle id="162" depart="275.40">
        <route edges="gneE20 2/1to1/1 1/1to2/1 -gneE20"/>
    </vehicle>
    <vehicle id="163" depart="277.10">
        <route edges="-gneE14 0/0to0/1 0/1to0/2 0/2to1/2 -gneE19"/>
    </vehicle>
    <vehicle id="164" depart="278.80">
        <route edges="-gneE7 0/2to1/2 -gneE19"/>
    </vehicle>
    <vehicle id="165" depart="280.50">
        <route edges="gneE19 1/2to0/2 0/2to0/1 0/1to0/0 gneE14"/>
    </vehicle>
    <vehicle id="166" depart="282.20">
        <route edges="gneE19 1/2to1/1 1/1to2/1 2/1to1/1"/>
    </vehicle>
    <vehicle id="167" depart="283.90">
        <route edges="-gneE11 gneE12"/>
    </vehicle>
    <vehicle id="168" depart="285.60">
        <route edges="-gneE5 0/2to0/1 0/1to0/0 0/0to1/0 1/0to0/0"/>
    </vehicle>
    <vehicle id="169" depart="287.30">
        <route edges="-gneE5 0/2to1/2 1/2to2/2 gneE9"/>
    </vehicle>
    <vehicle id="170" depart="289.00">
        <route edges="gneE23 0/1to0/0 gneE14"/>
    </vehicle>
    <vehicle id="171" depart="290.70">
        <route edges="gneE19 1/2to1/1 1/1to1/0 -gneE22"/>
    </vehicle>
    <vehicle id="172" depart="292.40">
        <route edges="gneE22 1/0to0/0 0/0to0/1 -gneE23"/>
    </vehicle>
    <vehicle id="173" depart="294.10">
        <route edges="-gneE7 0/2to0/1 0/1to0/2 gneE7"/>
    </vehicle>
    <vehicle id="174" depart="295.80">
        <route edges="-gneE14 0/0to1/0 1/0to0/0"/>
    </vehicle>
    <vehicle id="175" depart="297.50">
        <route edges="-gneE5 0/2to0/1 -gneE23"/>
    </vehicle>
    <vehicle id="176" depart="299.20">
        <route edges="1/1to0/1 0/1to0/2 0/2to1/2 1/2to2/2 gneE8"/>
    </vehicle>
    <vehicle id="177" depart="300.90">
        <route edges="-gneE5 0/2to0/1 0/1to1/1 1/1to2/1 2/1to2/0"/>
    </vehicle>
    <vehicle id="178" depart="302.60">
        <route edges="gneE20 2/1to1/1 1/1to1/0 -gneE22"/>
    </vehicle>
    <vehicle id="179" depart="304.30">
        <route edges="-gneE8 2/2to1/2 1/2to1/1 1/1to1/0 1/0to0/0"/>
    </vehicle>
    <vehicle id="180" depart="306.00">
        <route edges="gneE22 1/0to1/1 1/1to1/2 -gneE19"/>
    </vehicle>
    <vehicle id="181" depart="307.70">
        <route edges="gneE23 0/1to0/2 0/2to1/2 1/2to2/2 gneE9"/>
    </vehicle>
    <vehicle id="182" depart="309.40">
        <route edges="-gneE9 2/2to1/2 1/2to0/2 0/2to0/1 0/1to0/2"/>
    </vehicle>
    <vehicle id="183" depart="311.10">
        <route edges="-gneE14 0/0to0/1 0/1to0/2 gneE7"/>
    </vehicle>
    <vehicle id="184" depart="312.80">
        <route edges="-gneE11 2/0to1/0 1/0to0/0 0/0to0/1 0/1to0/2 gneE7"/>
    </vehicle>
    <vehicle id="185" depart="314.50">
        <route edges="gneE23 0/1to1/1 1/1to2/1 -gneE20"/>
    </vehicle>
    <vehicle id="186" depart="316.20">
        <route edges="-gneE8 2/2to1/2 1/2to2/2 gneE8"/>
    </vehicle>
    <vehicle id="187" depart="317.90">
        <route edges="1/2to0/2 0/2to1/2 1/2to2/2 gneE8"/>
    </vehicle>
    <vehicle id="188" depart="319.60">
        <route edges="-gneE11 2/0to1/0 1/0to1/1 1/1to1/2 -gneE19"/>
    </vehicle>
    <vehicle id="189" depart="321.30">
        <route edges="-gneE14 0/0to0/1 0/1to0/2 0/2to1/2 1/2to2/2 gneE8"/>
    </vehicle>
    <vehicle id="190" depart="323.00">
        <route edges="gneE20 2/1to1/1 1/1to1/2 -gneE19"/>
    </vehicle>
    <vehicle id="191" depart="324.70">
        <route edges="gneE22 1/0to2/0 gneE12"/>
    </vehicle>
    <vehicle id="192" depart="326.40">
        <route edges="-gneE13 0/0to1/0 1/0to2/0 gneE11"/>
    </vehicle>
    <vehicle id="193" depart="328.10">
        <route edges="gneE20 2/1to1/1 1/1to2/1"/>
    </vehicle>
    <vehicle id="194" depart="329.80">
        <route edges="-gneE13 gneE14"/>
    </vehicle>
    <vehicle id="195" depart="331.50">
        <route edges="-gneE9 2/2to1/2 1/2to0/2 0/2to0/1 -gneE23"/>
    </vehicle>
    <vehicle id="196" depart="333.20">
        <route edges="0/0to0/1 0/1to0/0 gneE13"/>
    </vehicle>
    <vehicle id="197" depart="334.90">
        <route edges="-gneE13 0/0to0/1 0/1to0/2 0/2to1/2 1/2to2/2 gneE9"/>
    </vehicle>
    <vehicle id="198" depart="336.60">
        <route edges="-gneE11 gneE12"/>
    </vehicle>
    <vehicle id="199" depart="338.30">
        <route edges="gneE23 0/1to0/2 0/2to1/2 1/2to2/2 gneE9"/>
    </vehicle>
    <vehicle id="200" depart="340.00">
        <route edges="-gneE12 2/0to1/0 1/0to1/1 1/1to1/2 -gneE19"/>
    </vehicle>
    <vehicle id="201" depart="341.70">
        <route edges="-gneE7 0/2to0/1 0/1to0/0 gneE14"/>
    </vehicle>
    <vehicle id="202" depart="343.40">
        <route edges="-gneE5 0/2to0/1 0/1to0/2 gneE5"/>
    </vehicle>
    <vehicle id="203" depart="345.10">
        <route edges="-gneE9 2/2to1/2 1/2to2/2 gneE9"/>
    </vehicle>
    <vehicle id="204" depart="346.80">
        <route edges="0/2to1/2 1/2to1/1 1/1to2/1 -gneE20"/>
    </vehicle>
    <vehicle id="205" depart="348.50">
        <route edges="-gneE9 2/2to2/1 -gneE20"/>
    </vehicle>
    <vehicle id="206" depart="350.20">
        <route edges="-gneE13 0/0to0/1 0/1to0/2 gneE7"/>
    </vehicle>
    <vehicle id="207" depart="351.90">
        <route edges="0/1to0/2 0/2to0/1 0/1to0/0 0/0to1/0 1/0to2/0 gneE11"/>
    </vehicle>
    <vehicle id="208" depart="353.60">
        <route edges="gneE19 1/2to2/2 gneE9"/>
    </vehicle>
    <vehicle id="209" depart="355.30">
        <route edges="-gneE8 2/2to1/2 -gneE19"/>
    </vehicle>
    <vehicle id="210" depart="357.00">
        <route edges="-gneE5 0/2to0/1 0/1to1/1 1/1to2/1 -gneE20"/>
    </vehicle>
    <vehicle id="211" depart="358.70">
        <route edges="gneE23 0/1to1/1 1/1to2/1 -gneE20"/>
    </vehicle>
    <vehicle id="212" depart="360.40">
        <route edges="-gneE12 2/0to2/1 -gneE20"/>
    </vehicle>
    <vehicle id="213" depart="362.10">
        <route edges="-gneE12 2/0to1/0 1/0to0/0 0/0to0/1 0/1to0/2 gneE5"/>
    </vehicle>
    <vehicle id="214" depart="363.80">
        <route edges="gneE22 1/0to0/0 0/0to0/1 0/1to0/2 gneE7"/>
    </vehicle>
    <vehicle id="215" depart="365.50">
        <route edges="1/0to2/0 gneE12"/>
    </vehicle>
    <vehicle id="216" depart="367.20">
        <route edges="-gneE7 gneE5"/>
    </vehicle>
    <vehicle id="217" depart="368.90">
        <route edges="1/1to1/0 -gneE22"/>
    </vehicle>
    <vehicle id="218" depart="370.60">
        <route edges="gneE22 1/0to1/1 1/1to1/2 1/2to0/2"/>
    </vehicle>
    <vehicle id="219" depart="372.30">
        <route edges="0/2to0/1 0/1to0/0 0/0to1/0 1/0to2/0 gneE11"/>
    </vehicle>
    <vehicle id="220" depart="374.00">
        <route edges="2/0to2/1 2/1to2/2 gneE8"/>
    </vehicle>
    <vehicle id="221" depart="375.70">
        <route edges="gneE19 1/2to0/2 0/2to1/2 -gneE19"/>
    </vehicle>
    <vehicle id="222" depart="377.40">
        <route edges="gneE19 1/2to1/1"/>
    </vehicle>
    <vehicle id="223" depart="379.10">
        <route edges="gneE23 0/1to0/0 gneE14"/>
    </vehicle>
    <vehicle id="224" depart="380.80">
        <route edges="-gneE12 2/0to1/0 1/0to2/0 gneE12"/>
    </vehicle>
    <vehicle id="225" depart="382.50">
        <route edges="gneE23 0/1to0/0 0/0to1/0 1/0to0/0"/>
    </vehicle>
    <vehicle id="226" depart="384.20">
        <route edges="gneE22 1/0to0/0 0/0to0/1 -gneE23"/>
    </vehicle>
    <vehicle id="227" depart="385.90">
        <route edges="-gneE8 2/2to1/2 1/2to0/2 gneE5"/>
    </vehicle>
    <vehicle id="228" depart="387.60">
        <route edges="-gneE12 2/0to1/0 1/0to0/0 0/0to0/1 0/1to0/2 gneE5"/>
    </vehicle>
    <vehicle id="229" depart="389.30">
        <route edges="1/0to0/0 0/0to1/0 1/0to2/0 2/0to1/0"/>
    </vehicle>
    <vehicle id="230" depart="391.00">
        <route edges="-gneE13 0/0to0/1 0/1to0/0 gneE13"/>
    </vehicle>
    <vehicle id="231" depart="392.70">
        <route edges="-gneE11 2/0to1/0 1/0to0/0 0/0to0/1 0/1to1/1"/>
    </vehicle>
    <vehicle id="232" depart="394.40">
        <route edges="-gneE12 2/0to1/0 1/0to2/0 gneE12"/>
    </vehicle>
    <vehicle id="233" depart="396.10">
        <route edges="-gneE13 0/0to0/1 0/1to0/2 gneE5"/>
    </vehicle>
    <vehicle id="234" depart="397.80">
        <route edges="-gneE12 gneE11"/>
    </vehicle>
    <vehicle id="235" depart="399.50">
        <route edges="-gneE12 2/0to1/0 1/0to0/0 0/0to0/1 -gneE23"/>
    </vehicle>
    <vehicle id="236" depart="401.20">
        <route edges="gneE19 1/2to1/1 1/1to1/0"/>
    </vehicle>
    <vehicle id="237" depart="402.90">
        <route edges="gneE22 1/0to0/0 0/0to1/0 -gneE22"/>
    </vehicle>
    <vehicle id="238" depart="404.60">
        <route edges="0/2to1/2 1/2to1/1 1/1to1/0 -gneE22"/>
    </vehicle>
    <vehicle id="239" depart="406.30">
        <route edges="1/2to2/2 2/2to1/2 1/2to0/2 0/2to0/1 0/1to0/0 gneE13"/>
    </vehicle>
    <vehicle id="240" depart="408.00">
        <route edges="gneE23 0/1to0/0 0/0to1/0 1/0to2/0 gneE11"/>
    </vehicle>
    <vehicle id="241" depart="409.70">
        <route edges="-gneE13 0/0to0/1 0/1to0/2 0/2to1/2 1/2to2/2 2/2to2/1"/>
    </vehicle>
    <vehicle id="242" depart="411.40">
        <route edges="gneE22 1/0to1/1 1/1to1/2 -gneE19"/>
    </vehicle>
    <vehicle id="243" depart="413.10">
        <route edges="-gneE8 2/2to1/2 -gneE19"/>
    </vehicle>
    <vehicle id="244" depart="414.80">
        <route edges="-gneE11 2/0to1/0 -gneE22"/>
    </vehicle>
    <vehicle id="245" depart="416.50">
        <route edges="-gneE11 2/0to2/1 2/1to2/2 gneE8"/>
    </vehicle>
    <vehicle id="246" depart="418.20">
        <route edges="-gneE8 2/2to2/1 2/1to1/1"/>
    </vehicle>
    <vehicle id="247" depart="419.90">
        <route edges="gneE19 1/2to0/2 gneE5"/>
    </vehicle>
    <vehicle id="248" depart="421.60">
        <route edges="-gneE13 0/0to0/1 -gneE23"/>
    </vehicle>
    <vehicle id="249" depart="423.30">
        <route edges="-gneE13 0/0to1/0 1/0to2/0 gneE12"/>
    </vehicle>
    <vehicle id="250" depart="425.00">
        <route edges="-gneE13 0/0to0/1 0/1to1/1 1/1to2/1 -gneE20"/>
    </vehicle>
    <vehicle id="251" depart="426.70">
        <route edges="-gneE8 2/2to1/2 -gneE19"/>
    </vehicle>
    <vehicle id="252" depart="428.40">
        <route edges="-gneE7 0/2to0/1 0/1to0/0 gneE14"/>
    </vehicle>
    <vehicle id="253" depart="430.10">
        <route edges="-gneE5 0/2to0/1 -gneE23"/>
    </vehicle>
    <vehicle id="254" depart="431.80">
        <route edges="-gneE14 gneE13"/>
    </vehicle>
    <vehicle id="255" depart="433.50">
        <route edges="-gneE8 2/2to1/2 -gneE19"/>
    </vehicle>
    <vehicle id="256" depart="435.20">
        <route edges="-gneE8 2/2to1/2 1/2to0/2 0/2to0/1 0/1to0/0 gneE14"/>
    </vehicle>
    <vehicle id="257" depart="436.90">
        <route edges="-gneE7 0/2to0/1 0/1to0/0 gneE13"/>
    </vehicle>