<?xml version="1.0" encoding="UTF-8"?>

<!-- generated on Sun May  6 20:38:19 2018 by SUMO duarouter Version 0.30.0
<?xml version="1.0" encoding="UTF-8"?>

<configuration xmlns:xsi="http://www.w3.org/2001/XMLSchema-instance" xsi:noNamespaceSchemaLocation="http://sumo.dlr.de/xsd/duarouterConfiguration.xsd">

    <input>
        <net-file value="new_manhattan/new_manhattan.net.xml"/>
        <route-files value="trips.trips.xml"/>
    </input>

    <output>
        <output-file value="new_manhattan/route/new_manhattan-1.45-0.rou.xml"/>
    </output>

    <processing>
        <ignore-errors value="true"/>
    </processing>

    <time>
        <begin value="0.0"/>
        <end value="1000.0"/>
    </time>

    <report>
        <no-warnings value="true"/>
        <no-step-log value="true"/>
    </report>

</configuration>
-->

<routes xmlns:xsi="http://www.w3.org/2001/XMLSchema-instance" xsi:noNamespaceSchemaLocation="http://sumo.dlr.de/xsd/routes_file.xsd">
    <vehicle id="0" depart="0.00">
        <route edges="-gneE9 2/2to1/2 -gneE19"/>
    </vehicle>
    <vehicle id="1" depart="1.45">
        <route edges="gneE23 0/1to0/2 0/2to1/2 1/2to2/2 gneE8"/>
    </vehicle>
    <vehicle id="2" depart="2.90">
        <route edges="-gneE12 2/0to1/0 1/0to0/0 0/0to0/1 0/1to0/2 gneE5"/>
    </vehicle>
    <vehicle id="3" depart="4.35">
        <route edges="gneE23 0/1to0/0 0/0to0/1 -gneE23"/>
    </vehicle>
    <vehicle id="4" depart="5.80">
        <route edges="1/2to0/2 0/2to0/1 -gneE23"/>
    </vehicle>
    <vehicle id="5" depart="7.25">
        <route edges="-gneE8 2/2to1/2 1/2to0/2 0/2to0/1 0/1to0/0 gneE14"/>
    </vehicle>
    <vehicle id="6" depart="8.70">
        <route edges="-gneE9 2/2to1/2 -gneE19"/>
    </vehicle>
    <vehicle id="7" depart="10.15">
        <route edges="-gneE12 2/0to1/0 1/0to0/0 0/0to0/1 0/1to0/2 gneE5"/>
    </vehicle>
    <vehicle id="8" depart="11.60">
        <route edges="-gneE9 2/2to2/1 2/1to2/0 gneE11"/>
    </vehicle>
    <vehicle id="9" depart="13.05">
        <route edges="-gneE14 0/0to0/1 0/1to1/1 1/1to2/1 -gneE20"/>
    </vehicle>
    <vehicle id="10" depart="14.50">
        <route edges="gneE22 1/0to0/0 0/0to1/0"/>
    </vehicle>
    <vehicle id="11" depart="15.95">
        <route edges="1/1to1/0 1/0to0/0 0/0to0/1 -gneE23"/>
    </vehicle>
    <vehicle id="12" depart="17.40">
        <route edges="-gneE11 2/0to1/0 1/0to0/0 0/0to0/1 0/1to0/2 gneE5"/>
    </vehicle>
    <vehicle id="13" depart="18.85">
        <route edges="-gneE11 2/0to1/0 1/0to0/0 gneE14"/>
    </vehicle>
    <vehicle id="14" depart="20.30">
        <route edges="-gneE8 2/2to1/2 1/2to2/2 gneE8"/>
    </vehicle>
    <vehicle id="15" depart="21.75">
        <route edges="-gneE13 0/0to0/1 0/1to0/0 gneE13"/>
    </vehicle>
    <vehicle id="16" depart="23.20">
        <route edges="-gneE9 2/2to1/2 1/2to0/2 gneE7"/>
    </vehicle>
    <vehicle id="17" depart="24.65">
        <route edges="-gneE11 2/0to2/1 2/1to2/2"/>
    </vehicle>
    <vehicle id="18" depart="26.10">
        <route edges="0/1to1/1 1/1to1/2"/>
    </vehicle>
    <vehicle id="19" depart="27.55">
        <route edges="-gneE8 2/2to1/2 1/2to0/2 0/2to0/1 0/1to0/0 gneE13"/>
    </vehicle>
    <vehicle id="20" depart="29.00">
        <route edges="-gneE9 2/2to1/2 1/2to0/2 0/2to0/1 0/1to0/0 gneE13"/>
    </vehicle>
    <vehicle id="21" depart="30.45">
        <route edges="gneE23 0/1to0/0 gneE14"/>
    </vehicle>
    <vehicle id="22" depart="31.90">
        <route edges="-gneE14 0/0to0/1 0/1to0/2 0/2to1/2 1/2to2/2 gneE9"/>
    </vehicle>
    <vehicle id="23" depart="33.35">
        <route edges="1/2to2/2 2/2to1/2 1/2to0/2 0/2to0/1 -gneE23"/>
    </vehicle>
    <vehicle id="24" depart="34.80">
        <route edges="-gneE11 2/0to2/1 2/1to2/2 gneE9"/>
    </vehicle>
    <vehicle id="25" depart="36.25">
        <route edges="-gneE9 2/2to1/2 1/2to0/2 0/2to0/1 -gneE23"/>
    </vehicle>
    <vehicle id="26" depart="37.70">
        <route edges="0/2to0/1 0/1to0/0 0/0to1/0 1/0to2/0"/>
    </vehicle>
    <vehicle id="27" depart="39.15">
        <route edges="-gneE14 0/0to1/0 1/0to2/0 gneE12"/>
    </vehicle>
    <vehicle id="28" depart="40.60">
        <route edges="gneE22 1/0to0/0 0/0to0/1 0/1to0/2 gneE5"/>
    </vehicle>
    <vehicle id="29" depart="42.05">
        <route edges="1/1to1/0 1/0to1/1 1/1to1/2 -gneE19"/>
    </vehicle>
    <vehicle id="30" depart="43.50">
        <route edges="1/1to1/0 1/0to2/0 gneE11"/>
    </vehicle>
    <vehicle id="31" depart="44.95">
        <route edges="-gneE13 0/0to0/1 0/1to1/1 1/1to0/1"/>
    </vehicle>
    <vehicle id="32" depart="46.40">
        <route edges="gneE20 2/1to2/2 gneE8"/>
    </vehicle>
    <vehicle id="33" depart="47.85">
        <route edges="-gneE13 0/0to0/1 0/1to0/0 gneE13"/>
    </vehicle>
    <vehicle id="34" depart="49.30">
        <route edges="-gneE9 2/2to2/1 -gneE20"/>
    </vehicle>
    <vehicle id="35" depart="50.75">
        <route edges="-gneE5 0/2to0/1 0/1to0/0 gneE14"/>
    </vehicle>
    <vehicle id="36" depart="52.20">
        <route edges="-gneE9 2/2to1/2 1/2to0/2 0/2to0/1 0/1to0/0 gneE13"/>
    </vehicle>
    <vehicle id="37" depart="53.65">
        <route edges="gneE23 0/1to0/2 0/2to1/2 -gneE19"/>
    </vehicle>
    <vehicle id="38" depart="55.10">
        <route edges="gneE20 2/1to2/0 gneE12"/>
    </vehicle>
    <vehicle id="39" depart="56.55">
        <route edges="2/1to2/0 2/0to1/0 1/0to0/0 0/0to0/1 -gneE23"/>
    </vehicle>
    <vehicle id="40" depart="58.00">
        <route edges="-gneE9 2/2to2/1 2/1to1/1"/>
    </vehicle>
    <vehicle id="41" depart="59.45">
        <route edges="2/2to2/1 2/1to1/1 1/1to0/1 0/1to0/2"/>
    </vehicle>
    <vehicle id="42" depart="60.90">
        <route edges="gneE23 0/1to0/0 0/0to1/0 -gneE22"/>
    </vehicle>
    <vehicle id="43" depart="62.35">
        <route edges="-gneE14 0/0to1/0 1/0to2/0 gneE11"/>
    </vehicle>
    <vehicle id="44" depart="63.80">
        <route edges="-gneE5 0/2to0/1 0/1to0/0 0/0to1/0 1/0to2/0 gneE11"/>
    </vehicle>
    <vehicle id="45" depart="65.25">
        <route edges="gneE22 1/0to0/0 0/0to1/0 -gneE22"/>
    </vehicle>
    <vehicle id="46" depart="66.70">
        <route edges="-gneE8 2/2to2/1 2/1to2/0 gneE12"/>
    </vehicle>
    <vehicle id="47" depart="68.15">
        <route edges="-gneE5 0/2to0/1 0/1to0/0 0/0to1/0 -gneE22"/>
    </vehicle>
    <vehicle id="48" depart="69.60">
        <route edges="gneE22 1/0to1/1 1/1to1/2 1/2to2/2 gneE8"/>
    </vehicle>
    <vehicle id="49" depart="71.05">
        <route edges="-gneE12 2/0to1/0 1/0to1/1 1/1to1/2 -gneE19"/>
    </vehicle>
    <vehicle id="50" depart="72.50">
        <route edges="1/2to2/2 2/2to1/2 1/2to1/1 1/1to1/0 -gneE22"/>
    </vehicle>
    <vehicle id="51" depart="73.95">
        <route edges="gneE19 1/2to0/2 0/2to0/1 -gneE23"/>
    </vehicle>
    <vehicle id="52" depart="75.40">
        <route edges="-gneE11 2/0to1/0 1/0to0/0 0/0to0/1 -gneE23"/>
    </vehicle>
    <vehicle id="53" depart="76.85">
        <route edges="-gneE8 2/2to1/2 1/2to0/2 0/2to0/1 -gneE23"/>
    </vehicle>
    <vehicle id="54" depart="78.30">
        <route edges="gneE20 2/1to2/2 gneE8"/>
    </vehicle>
    <vehicle id="55" depart="79.75">
        <route edges="-gneE11 2/0to2/1 2/1to2/2 gneE9"/>
    </vehicle>
    <vehicle id="56" depart="81.20">
        <route edges="-gneE5 0/2to0/1 0/1to0/0 gneE14"/>
    </vehicle>
    <vehicle id="57" depart="82.65">
        <route edges="2/1to2/2 2/2to1/2 -gneE19"/>
    </vehicle>
    <vehicle id="58" depart="84.10">
        <route edges="1/1to1/0 1/0to0/0 0/0to0/1 -gneE23"/>
    </vehicle>
    <vehicle id="59" depart="85.55">
        <route edges="-gneE11 2/0to1/0 -gneE22"/>
    </vehicle>
    <vehicle id="60" depart="87.00">
        <route edges="gneE19 1/2to1/1 1/1to1/0 1/0to2/0 2/0to2/1"/>
    </vehicle>
    <vehicle id="61" depart="88.45">
        <route edges="-gneE11 2/0to1/0 1/0to1/1 1/1to1/2 -gneE19"/>
    </vehicle>
    <vehicle id="62" depart="89.90">
        <route edges="1/0to0/0 0/0to1/0 1/0to1/1"/>
    </vehicle>
    <vehicle id="63" depart="91.35">
        <route edges="-gneE7 0/2to0/1"/>
    </vehicle>
    <vehicle id="64" depart="92.80">
        <route edges="-gneE12 2/0to1/0 1/0to0/0 0/0to0/1 0/1to0/2 gneE5"/>
    </vehicle>
    <vehicle id="65" depart="94.25">
        <route edges="gneE19 1/2to0/2 0/2to0/1 -gneE23"/>
    </vehicle>
    <vehicle id="66" depart="95.70">
        <route edges="1/2to2/2 2/2to1/2 1/2to0/2 gneE5"/>
    </vehicle>
    <vehicle id="67" depart="97.15">
        <route edges="gneE23 0/1to0/2 gneE7"/>
    </vehicle>
    <vehicle id="68" depart="98.60">
        <route edges="-gneE11 2/0to1/0 1/0to0/0 0/0to0/1 0/1to0/2 gneE7"/>
    </vehicle>
    <vehicle id="69" depart="100.05">
        <route edges="1/0to2/0 gneE12"/>
    </vehicle>
    <vehicle id="70" depart="101.50">
        <route edges="-gneE9 2/2to1/2 1/2to1/1 1/1to1/0 1/0to1/1"/>
    </vehicle>
    <vehicle id="71" depart="102.95">
        <route edges="-gneE5 0/2to1/2 -gneE19"/>
    </vehicle>
    <vehicle id="72" depart="104.40">
        <route edges="-gneE8 2/2to2/1 2/1to2/0 gneE12"/>
    </vehicle>
    <vehicle id="73" depart="105.85">
        <route edges="gneE19 1/2to0/2 0/2to1/2 -gneE19"/>
    </vehicle>
    <vehicle id="74" depart="107.30">
        <route edges="-gneE12 2/0to1/0 1/0to0/0 0/0to0/1 0/1to0/2 gneE5"/>
    </vehicle>
    <vehicle id="75" depart="108.75">
        <route edges="0/0to1/0 1/0to1/1 1/1to1/2 1/2to2/2 gneE8"/>
    </vehicle>
    <vehicle id="76" depart="110.20">
        <route edges="gneE23 0/1to0/2 0/2to0/1"/>
    </vehicle>
    <vehicle id="77" depart="111.65">
        <route edges="-gneE7 0/2to1/2 1/2to2/2 gneE8"/>
    </vehicle>
    <vehicle id="78" depart="113.10">
        <route edges="-gneE14 0/0to0/1 0/1to0/2 0/2to1/2 -gneE19"/>
    </vehicle>
    <vehicle id="79" depart="114.55">
        <route edges="-gneE11 gneE12"/>
    </vehicle>
    <vehicle id="80" depart="116.00">
        <route edges="gneE20 2/1to2/0 gneE12"/>
    </vehicle>
    <vehicle id="81" depart="117.45">
        <route edges="gneE23 0/1to0/2 0/2to1/2 1/2to2/2"/>
    </vehicle>
    <vehicle id="82" depart="118.90">
        <route edges="-gneE11 2/0to1/0 1/0to0/0 0/0to0/1 -gneE23"/>
    </vehicle>
    <vehicle id="83" depart="120.35">
        <route edges="gneE19 1/2to2/2 gneE9"/>
    </vehicle>
    <vehicle id="84" depart="121.80">
        <route edges="-gneE7 0/2to1/2 1/2to2/2"/>
    </vehicle>
    <vehicle id="85" depart="123.25">
        <route edges="-gneE14 0/0to0/1 0/1to0/2 gneE7"/>
    </vehicle>
    <vehicle id="86" depart="124.70">
        <route edges="-gneE11 2/0to1/0 1/0to1/1 1/1to0/1"/>
    </vehicle>
    <vehicle id="87" depart="126.15">
        <route edges="-gneE13 0/0to0/1 0/1to0/2 0/2to1/2 1/2to2/2 gneE9"/>
    </vehicle>
    <vehicle id="88" depart="127.60">
        <route edges="gneE23 0/1to0/0 0/0to1/0 -gneE22"/>
    </vehicle>
    <vehicle id="89" depart="129.05">
        <route edges="-gneE11 2/0to1/0 1/0to0/0 0/0to0/1 0/1to0/2 gneE7"/>
    </vehicle>
    <vehicle id="90" depart="130.50">
        <route edges="-gneE11 2/0to1/0 1/0to0/0 gneE13"/>
    </vehicle>
    <vehicle id="91" depart="131.95">
        <route edges="-gneE13 0/0to0/1 0/1to1/1 1/1to2/1 -gneE20"/>
    </vehicle>
    <vehicle id="92" depart="133.40">
        <route edges="-gneE7 0/2to1/2 1/2to2/2 2/2to1/2"/>
    </vehicle>
    <vehicle id="93" depart="134.85">
        <route edges="gneE22 1/0to0/0 gneE14"/>
    </vehicle>
    <vehicle id="94" depart="136.30">
        <route edges="-gneE9 2/2to1/2 1/2to1/1 1/1to1/0"/>
    </vehicle>
    <vehicle id="95" depart="137.75">
        <route edges="gneE22 1/0to1/1 1/1to1/2 -gneE19"/>
    </vehicle>
    <vehicle id="96" depart="139.20">
        <route edges="gneE19 1/2to1/1 1/1to1/0 -gneE22"/>
    </vehicle>
    <vehicle id="97" depart="140.65">
        <route edges="gneE19 1/2to1/1"/>
    </vehicle>
    <vehicle id="98" depart="142.10">
        <route edges="-gneE8 2/2to2/1 2/1to2/0 gneE11"/>
    </vehicle>
    <vehicle id="99" depart="143.55">
        <route edges="gneE22 1/0to2/0 gneE11"/>
    </vehicle>
    <vehicle id="100" depart="145.00">
        <route edges="gneE19 1/2to1/1 1/1to1/0 1/0to2/0 gneE12"/>
    </vehicle>
    <vehicle id="101" depart="146.45">
        <route edges="gneE19 1/2to1/1 1/1to1/0"/>
    </vehicle>
    <vehicle id="102" depart="147.90">
        <route edges="-gneE5 0/2to0/1 -gneE23"/>
    </vehicle>
    <vehicle id="103" depart="149.35">
        <route edges="-gneE12 gneE11"/>
    </vehicle>
    <vehicle id="104" depart="150.80">
        <route edges="0/0to1/0 1/0to0/0 gneE14"/>
    </vehicle>
    <vehicle id="105" depart="152.25">
        <route edges="gneE22 1/0to0/0 gneE14"/>
    </vehicle>
    <vehicle id="106" depart="153.70">
        <route edges="-gneE7 0/2to0/1 0/1to0/0 0/0to1/0 1/0to2/0 gneE11"/>
    </vehicle>
    <vehicle id="107" depart="155.15">
        <route edges="-gneE9 2/2to2/1 2/1to2/0 gneE12"/>
    </vehicle>
    <vehicle id="108" depart="156.60">
        <route edges="gneE19 1/2to1/1 1/1to2/1 -gneE20"/>
    </vehicle>
    <vehicle id="109" depart="158.05">
        <route edges="gneE19 1/2to0/2 0/2to1/2 -gneE19"/>
    </vehicle>
    <vehicle id="110" depart="159.50">
        <route edges="gneE19 1/2to0/2 gneE5"/>
    </vehicle>
    <vehicle id="111" depart="160.95">
        <route edges="-gneE5 0/2to0/1 0/1to1/1 1/1to2/1"/>
    </vehicle>
    <vehicle id="112" depart="162.40">
        <route edges="-gneE14 0/0to0/1 0/1to0/2 gneE7"/>
    </vehicle>
    <vehicle id="113" depart="163.85">
        <route edges="1/2to2/2 2/2to1/2 1/2to0/2 gneE5"/>
    </vehicle>
    <vehicle id="114" depart="165.30">
        <route edges="gneE20 2/1to1/1 1/1to0/1 0/1to0/0 gneE13"/>
    </vehicle>
    <vehicle id="115" depart="166.75">
        <route edges="-gneE13 0/0to1/0 -gneE22"/>
    </vehicle>
    <vehicle id="116" depart="168.20">
        <route edges="-gneE8 2/2to1/2 1/2to0/2 0/2to0/1 0/1to0/0 gneE13"/>
    </vehicle>
    <vehicle id="117" depart="169.65">
        <route edges="-gneE11 2/0to1/0 1/0to0/0 gneE14"/>
    </vehicle>
    <vehicle id="118" depart="171.10">
        <route edges="0/0to0/1 0/1to0/0 0/0to1/0 1/0to2/0 gneE11"/>
    </vehicle>
    <vehicle id="119" depart="172.55">
        <route edges="-gneE12 2/0to2/1 2/1to2/2 gneE9"/>
    </vehicle>
    <vehicle id="120" depart="174.00">
        <route edges="gneE19 1/2to1/1 1/1to1/0 1/0to1/1"/>
    </vehicle>
    <vehicle id="121" depart="175.45">
        <route edges="1/2to2/2 2/2to1/2 1/2to1/1 1/1to1/0 -gneE22"/>
    </vehicle>
    <vehicle id="122" depart="176.90">
        <route edges="-gneE8 2/2to2/1 -gneE20"/>
    </vehicle>
    <vehicle id="123" depart="178.35">
        <route edges="1/1to2/1 2/1to2/0 gneE12"/>
    </vehicle>
    <vehicle id="124" depart="179.80">
        <route edges="-gneE13 0/0to0/1 0/1to0/2 gneE5"/>
    </vehicle>
    <vehicle id="125" depart="181.25">
        <route edges="-gneE14 0/0to0/1 -gneE23"/>
    </vehicle>
    <vehicle id="126" depart="182.70">
        <route edges="-gneE8 2/2to1/2 1/2to1/1 1/1to1/2"/>
    </vehicle>
    <vehicle id="127" depart="184.15">
        <route edges="-gneE8 2/2to1/2 1/2to2/2"/>
    </vehicle>
    <vehicle id="128" depart="185.60">
        <route edges="-gneE9 2/2to1/2 1/2to0/2 0/2to0/1 -gneE23"/>
    </vehicle>
    <vehicle id="129" depart="187.05">
        <route edges="-gneE13 0/0to1/0 1/0to2/0 gneE11"/>
    </vehicle>
    <vehicle id="130" depart="188.50">
        <route edges="-gneE11 2/0to1/0 1/0to0/0 0/0to0/1 0/1to0/2 gneE7"/>
    </vehicle>
    <vehicle id="131" depart="189.95">
        <route edges="-gneE9 2/2to1/2"/>
    </vehicle>
    <vehicle id="132" depart="191.40">
        <route edges="2/0to1/0 1/0to0/0 gneE14"/>
    </vehicle>
    <vehicle id="133" depart="192.85">
        <route edges="-gneE7 0/2to0/1 0/1to1/1 1/1to2/1 -gneE20"/>
    </vehicle>
    <vehicle id="134" depart="194.30">
        <route edges="-gneE9 2/2to1/2 1/2to0/2 gneE7"/>
    </vehicle>
    <vehicle id="135" depart="195.75">
        <route edges="-gneE14 0/0to1/0 1/0to2/0 gneE11"/>
    </vehicle>
    <vehicle id="136" depart="197.20">
        <route edges="-gneE5 0/2to1/2 1/2to2/2"/>
    </vehicle>
    <vehicle id="137" depart="198.65">
        <route edges="-gneE8 2/2to1/2 1/2to1/1 1/1to1/0 -gneE22"/>
    </vehicle>
    <vehicle id="138" depart="200.10">
        <route edges="-gneE14 0/0to0/1 0/1to0/2 0/2to1/2 1/2to2/2 gneE9"/>
    </vehicle>
    <vehicle id="139" depart="201.55">
        <route edges="-gneE7 0/2to0/1 0/1to0/0 0/0to1/0 1/0to2/0 gneE12"/>
    </vehicle>
    <vehicle id="140" depart="203.00">
        <route edges="0/0to1/0 1/0to0/0 0/0to0/1 0/1to0/2 gneE7"/>
    </vehicle>
    <vehicle id="141" depart="204.45">
        <route edges="gneE20 2/1to1/1 1/1to0/1 0/1to0/2 gneE5"/>
    </vehicle>
    <vehicle id="142" depart="205.90">
        <route edges="2/1to2/0 2/0to1/0 -gneE22"/>
    </vehicle>
    <vehicle id="143" depart="207.35">
        <route edges="gneE19 1/2to0/2 0/2to1/2"/>
    </vehicle>
    <vehicle id="144" depart="208.80">
        <route edges="-gneE13 0/0to0/1 0/1to0/2 gneE7"/>
    </vehicle>
    <vehicle id="145" depart="210.25">
        <route edges="gneE19 1/2to1/1 1/1to2/1 -gneE20"/>
    </vehicle>
    <vehicle id="146" depart="211.70">
        <route edges="-gneE8 gneE9"/>
    </vehicle>
    <vehicle id="147" depart="213.15">
        <route edges="-gneE11 2/0to1/0 1/0to2/0 gneE11"/>
    </vehicle>
    <vehicle id="148" depart="214.60">
        <route edges="0/1to0/2 0/2to0/1 0/1to0/0 0/0to1/0 1/0to2/0 gneE11"/>
    </vehicle>
    <vehicle id="149" depart="216.05">
        <route edges="-gneE11 2/0to1/0 1/0to0/0 0/0to0/1 0/1to0/2 0/2to1/2"/>
    </vehicle>
    <vehicle id="150" depart="217.50">
        <route edges="gneE19 1/2to1/1 1/1to2/1 -gneE20"/>
    </vehicle>
    <vehicle id="151" depart="218.95">
        <route edges="-gneE14 0/0to0/1 0/1to0/2 0/2to1/2 1/2to2/2 gneE9"/>
    </vehicle>
    <vehicle id="152" depart="220.40">
        <route edges="gneE22 1/0to2/0 gneE11"/>
    </vehicle>
    <vehicle id="153" depart="221.85">
        <route edges="-gneE14 0/0to1/0 -gneE22"/>
    </vehicle>
    <vehicle id="154" depart="223.30">
        <route edges="-gneE13 0/0to0/1 0/1to1/1 1/1to2/1 -gneE20"/>
    </vehicle>
    <vehicle id="155" depart="224.75">
        <route edges="2/1to2/2 gneE8"/>
    </vehicle>
    <vehicle id="156" depart="226.20">
        <route edges="gneE23 0/1to0/2 gneE7"/>
    </vehicle>
    <vehicle id="157" depart="227.65">
        <route edges="-gneE11 2/0to1/0 1/0to1/1 1/1to1/2 -gneE19"/>
    </vehicle>
    <vehicle id="158" depart="229.10">
        <route edges="-gneE14 0/0to0/1 0/1to1/1 1/1to2/1 -gneE20"/>
    </vehicle>
    <vehicle id="159" depart="230.55">
        <route edges="-gneE11 2/0to2/1 2/1to2/2 gneE9"/>
    </vehicle>
    <vehicle id="160" depart="232.00">
        <route edges="gneE19 1/2to0/2 gneE7"/>
    </vehicle>
    <vehicle id="161" depart="233.45">
        <route edges="-gneE14 0/0to0/1 0/1to0/2 0/2to1/2 1/2to2/2 gneE9"/>
    </vehicle>
    <vehicle id="162" depart="234.90">
        <route edges="-gneE9 2/2to1/2 1/2to0/2 gneE7"/>
    </vehicle>
    <vehicle id="163" depart="236.35">
        <route edges="gneE19 1/2to1/1 1/1to1/0 1/0to2/0 gneE11"/>
    </vehicle>
    <vehicle id="164" depart="237.80">
        <route edges="2/2to2/1 2/1to1/1 1/1to0/1 0/1to0/0 gneE14"/>
    </vehicle>
    <vehicle id="165" depart="239.25">
        <route edges="-gneE7 0/2to0/1 0/1to0/0 0/0to1/0"/>
    </vehicle>
    <vehicle id="166" depart="240.70">
        <route edges="-gneE5 0/2to0/1 0/1to0/0 0/0to1/0 -gneE22"/>
    </vehicle>
    <vehicle id="167" depart="242.15">
        <route edges="gneE19 1/2to1/1 1/1to1/0 1/0to2/0 gneE12"/>
    </vehicle>
    <vehicle id="168" depart="243.60">
        <route edges="gneE20 2/1to1/1 1/1to1/0 -gneE22"/>
    </vehicle>
    <vehicle id="169" depart="245.05">
        <route edges="-gneE12 2/0to1/0 1/0to2/0 gneE12"/>
    </vehicle>
    <vehicle id="170" depart="246.50">
        <route edges="gneE22 1/0to2/0 gneE12"/>
    </vehicle>
    <vehicle id="171" depart="247.95">
        <route edges="-gneE5 0/2to0/1 0/1to1/1 1/1to2/1 -gneE20"/>
    </vehicle>
    <vehicle id="172" depart="249.40">
        <route edges="-gneE5 0/2to1/2 1/2to2/2 2/2to1/2"/>
    </vehicle>
    <vehicle id="173" depart="250.85">
        <route edges="gneE22 1/0to0/0 0/0to0/1 0/1to0/2 gneE7"/>
    </vehicle>
    <vehicle id="174" depart="252.30">
        <route edges="2/0to2/1 2/1to2/2 gneE8"/>
    </vehicle>
    <vehicle id="175" depart="253.75">
        <route edges="2/2to1/2 1/2to1/1 1/1to1/0 1/0to2/0 gneE12"/>
    </vehicle>
    <vehicle id="176" depart="255.20">
        <route edges="2/1to2/2 2/2to2/1 2/1to2/0 gneE11"/>
    </vehicle>
    <vehicle id="177" depart="256.65">
        <route edges="-gneE8 2/2to1/2 1/2to0/2 0/2to0/1 0/1to0/0 gneE14"/>
    </vehicle>
    <vehicle id="178" depart="258.10">
        <route edges="gneE23 0/1to0/2 0/2to1/2"/>
    </vehicle>
    <vehicle id="179" depart="259.55">
        <route edges="-gneE9 2/2to2/1 2/1to2/0 2/0to1/0"/>
    </vehicle>
    <vehicle id="180" depart="261.00">
        <route edges="-gneE13 0/0to1/0 -gneE22"/>
    </vehicle>
    <vehicle id="181" depart="262.45">
        <route edges="-gneE11 2/0to1/0 1/0to0/0 0/0to0/1 -gneE23"/>
    </vehicle>
    <vehicle id="182" depart="263.90">
        <route edges="gneE23 0/1to0/0 0/0to1/0 -gneE22"/>
    </vehicle>
    <vehicle id="183" depart="265.35">
        <route edges="-gneE13 0/0to1/0 1/0to2/0 gneE12"/>
    </vehicle>
    <vehicle id="184" depart="266.80">
        <route edges="gneE20 2/1to1/1 1/1to0/1 0/1to0/2 gneE7"/>
    </vehicle>
    <vehicle id="185" depart="268.25">
        <route edges="gneE20 2/1to2/0 gneE11"/>
    </vehicle>
    <vehicle id="186" depart="269.70">
        <route edges="gneE23 0/1to0/2 0/2to1/2 1/2to2/2 gneE9"/>
    </vehicle>
    <vehicle id="187" depart="271.15">
        <route edges="-gneE8 2/2to1/2 1/2to0/2 0/2to0/1 0/1to0/0 gneE13"/>
    </vehicle>
    <vehicle id="188" depart="272.60">
        <route edges="-gneE7 0/2to0/1 0/1to0/0 gneE13"/>
    </vehicle>
    <vehicle id="189" depart="274.05">
        <route edges="-gneE12 2/0to2/1 2/1to2/2 gneE9"/>
    </vehicle>
    <vehicle id="190" depart="275.50">
        <route edges="gneE22 1/0to0/0 0/0to0/1 0/1to0/2 gneE5"/>
    </vehicle>
    <vehicle id="191" depart="276.95">
        <route edges="gneE19 1/2to0/2 0/2to1/2 -gneE19"/>
    </vehicle>
    <vehicle id="192" depart="278.40">
        <route edges="1/1to1/0 1/0to0/0 0/0to0/1 0/1to0/2 gneE7"/>
    </vehicle>
    <vehicle id="193" depart="279.85">
        <route edges="1/2to1/1 1/1to1/0 1/0to2/0 gneE11"/>
    </vehicle>
    <vehicle id="194" depart="281.30">
        <route edges="gneE23 0/1to0/0 0/0to1/0 -gneE22"/>
    </vehicle>
    <vehicle id="195" depart="282.75">
        <route edges="1/0to1/1 1/1to0/1 0/1to0/0 0/0to0/1"/>
    </vehicle>
    <vehicle id="196" depart="284.20">
        <route edges="-gneE8 2/2to1/2 -gneE19"/>
    </vehicle>
    <vehicle id="197" depart="285.65">
        <route edges="0/2to1/2 1/2to1/1 1/1to1/0"/>
    </vehicle>
    <vehicle id="198" depart="287.10">
        <route edges="-gneE7 0/2to1/2 -gneE19"/>
    </vehicle>
    <vehicle id="199" depart="288.55">
        <route edges="2/1to2/0 2/0to1/0 1/0to0/0 gneE13"/>
    </vehicle>
    <vehicle id="200" depart="290.00">
        <route edges="gneE23 0/1to0/2 0/2to1/2 -gneE19"/>
    </vehicle>
    <vehicle id="201" depart="291.45">
        <route edges="0/2to1/2 1/2to0/2"/>
    </vehicle>
    <vehicle id="202" depart="292.90">
        <route edges="-gneE12 2/0to2/1 -gneE20"/>
    </vehicle>
    <vehicle id="203" depart="294.35">
        <route edges="gneE22 1/0to0/0 gneE13"/>
    </vehicle>
    <vehicle id="204" depart="295.80">
        <route edges="-gneE14 0/0to1/0 1/0to2/0 gneE12"/>
    </vehicle>
    <vehicle id="205" depart="297.25">
        <route edges="-gneE8 2/2to1/2 -gneE19"/>
    </vehicle>
    <vehicle id="206" depart="298.70">
        <route edges="-gneE7 0/2to1/2 1/2to2/2 gneE9"/>
    </vehicle>
    <vehicle id="207" depart="300.15">
        <route edges="gneE20 2/1to1/1 1/1to0/1 0/1to0/0 gneE14"/>
    </vehicle>
    <vehicle id="208" depart="301.60">
        <route edges="-gneE12 2/0to1/0 1/0to0/0 gneE13"/>
    </vehicle>
    <vehicle id="209" depart="303.05">
        <route edges="-gneE7 0/2to0/1 0/1to1/1 1/1to2/1 2/1to2/2"/>
    </vehicle>
    <vehicle id="210" depart="304.50">
        <route edges="1/1to1/0 1/0to1/1 1/1to1/2 1/2to2/2 gneE8"/>
    </vehicle>
    <vehicle id="211" depart="305.95">
        <route edges="0/1to0/2 gneE5"/>
    </vehicle>
    <vehicle id="212" depart="307.40">
        <route edges="0/2to1/2 1/2to0/2 gneE7"/>
    </vehicle>
    <vehicle id="213" depart="308.85">
        <route edges="-gneE14 0/0to0/1 -gneE23"/>
    </vehicle>
    <vehicle id="214" depart="310.30">
        <route edges="gneE20 2/1to2/2 gneE9"/>
    </vehicle>
    <vehicle id="215" depart="311.75">
        <route edges="gneE20 2/1to1/1 1/1to1/0"/>
    </vehicle>
    <vehicle id="216" depart="313.20">
        <route edges="-gneE11 gneE12"/>
    </vehicle>
    <vehicle id="217" depart="314.65">
        <route edges="gneE20 2/1to1/1 1/1to0/1 0/1to0/2 gneE7"/>
    </vehicle>
    <vehicle id="218" depart="316.10">
        <route edges="-gneE7 0/2to0/1 0/1to0/0 0/0to1/0 -gneE22"/>
    </vehicle>
    <vehicle id="219" depart="317.55">
        <route edges="-gneE11 2/0to1/0 -gneE22"/>
    </vehicle>
    <vehicle id="220" depart="319.00">
        <route edges="gneE23 0/1to0/0"/>
    </vehicle>
    <vehicle id="221" depart="320.45">
        <route edges="gneE23 0/1to0/0 0/0to0/1"/>
    </vehicle>
    <vehicle id="222" depart="321.90">
        <route edges="gneE19 1/2to0/2 0/2to0/1"/>
    </vehicle>
    <vehicle id="223" depart="323.35">
        <route edges="1/0to1/1 1/1to2/1 -gneE20"/>
    </vehicle>
    <vehicle id="224" depart="324.80">
        <route edges="-gneE8 2/2to1/2 1/2to0/2 0/2to0/1 0/1to0/0 gneE14"/>
    </vehicle>
    <vehicle id="225" depart="326.25">
        <route edges="gneE19 1/2to0/2 0/2to0/1 0/1to0/0 gneE13"/>
    </vehicle>
    <vehicle id="226" depart="327.70">
        <route edges="2/0to2/1 -gneE20"/>
    </vehicle>
    <vehicle id="227" depart="329.15">
        <route edges="-gneE14 0/0to1/0 1/0to2/0 gneE12"/>
    </vehicle>
    <vehicle id="228" depart="330.60">
        <route edges="2/1to1/1 1/1to1/0 -gneE22"/>
    </vehicle>
    <vehicle id="229" depart="332.05">
        <route edges="-gneE13 0/0to0/1 0/1to1/1 1/1to2/1 -gneE20"/>
    </vehicle>
    <vehicle id="230" depart="333.50">
        <route edges="-gneE12 gneE11"/>
    </vehicle>
    <vehicle id="231" depart="334.95">
        <route edges="-gneE11 2/0to1/0 1/0to1/1 1/1to1/2 1/2to0/2"/>
    </vehicle>
    <vehicle id="232" depart="336.40">
        <route edges="gneE20 2/1to1/1 1/1to1/2 -gneE19"/>
    </vehicle>
    <vehicle id="233" depart="337.85">
        <route edges="-gneE13 0/0to0/1 0/1to1/1 1/1to2/1 2/1to2/2"/>
    </vehicle>
    <vehicle id="234" depart="339.30">
        <route edges="gneE19 1/2to2/2 gneE9"/>
    </vehicle>
    <vehicle id="235" depart="340.75">
        <route edges="-gneE12 2/0to1/0 1/0to0/0 gneE13"/>
    </vehicle>
    <vehicle id="236" depart="342.20">
        <route edges="gneE23 0/1to0/2 gneE7"/>
    </vehicle>
    <vehicle id="237" depart="343.65">
        <route edges="gneE19 1/2to0/2 gneE7"/>
    </vehicle>
    <vehicle id="238" depart="345.10">
        <route edges="-gneE7 0/2to1/2 1/2to2/2 gneE8"/>
    </vehicle>
    <vehicle id="239" depart="346.55">
        <route edges="gneE19 1/2to0/2 0/2to0/1 0/1to0/0 gneE13"/>
    </vehicle>
    <vehicle id="240" depart="348.00">
        <route edges="-gneE14 0/0to0/1 0/1to0/2 0/2to1/2 1/2to2/2 gneE9"/>
    </vehicle>
    <vehicle id="241" depart="349.45">
        <route edges="-gneE8 2/2to1/2 1/2to1/1 1/1to1/0 -gneE22"/>
    </vehicle>
    <vehicle id="242" depart="350.90">
        <route edges="-gneE8 2/2to1/2 1/2to1/1 1/1to0/1"/>
    </vehicle>
    <vehicle id="243" depart="352.35">
        <route edges="gneE22 1/0to0/0 0/0to0/1 -gneE23"/>
    </vehicle>
    <vehicle id="244" depart="353.80">
        <route edges="-gneE14 0/0to1/0 1/0to2/0 gneE11"/>
    </vehicle>
    <vehicle id="245" depart="355.25">
        <route edges="gneE23 0/1to0/2 gneE7"/>
    </vehicle>
    <vehicle id="246" depart="356.70">
        <route edges="0/2to1/2 1/2to1/1 1/1to2/1 -gneE20"/>
    </vehicle>
    <vehicle id="247" depart="358.15">
        <route edges="gneE22 1/0to1/1 1/1to2/1 2/1to1/1"/>
    </vehicle>
    <vehicle id="248" depart="359.60">
        <route edges="gneE19 1/2to0/2 gneE5"/>
    </vehicle>
    <vehicle id="249" depart="361.05">
        <route edges="-gneE11 2/0to1/0 1/0to0/0 0/0to0/1 -gneE23"/>
    </vehicle>
    <vehicle id="250" depart="362.50">
        <route edges="-gneE5 0/2to1/2 1/2to2/2 gneE8"/>
    </vehicle>
    <vehicle id="251" depart="363.95">
        <route edges="-gneE5 0/2to0/1 0/1to0/0 0/0to1/0 -gneE22"/>
    </vehicle>
    <vehicle id="252" depart="365.40">
        <route edges="-gneE7 0/2to0/1 0/1to1/1 1/1to2/1 -gneE20"/>
    </vehicle>
    <vehicle id="253" depart="366.85">
        <route edges="-gneE9 2/2to1/2 1/2to0/2 gneE7"/>
    </vehicle>
    <vehicle id="254" depart="368.30">
        <route edges="-gneE12 gneE11"/>
    </vehicle>
    <vehicle id="255" depart="369.75">
        <route edges="-gneE9 2/2to1/2 1/2to0/2 0/2to0/1 0/1to0/0 gneE14"/>
    </vehicle>
    <vehicle id="256" depart="371.20">
        <route edges="-gneE7 0/2to0/1 0/1to0/0 0/0to1/0 1/0to1/1"/>
    </vehicle>
    <vehicle id="257" depart="372.65">
        <route edges="-gneE7 0/2to0/1 0/1to0/2 gneE7"/>
    </vehicle>
    <vehicle id="258" depart="374.10">
        <route edges="-gneE14 0/0to1/0 1/0to2/0 gneE11"/>
    </vehicle>
    <vehicle id="259" depart="375.55">