<?xml version="1.0" encoding="UTF-8"?>

<!-- generated on Fri Apr 13 11:43:14 2018 by Netedit Version 0.30.0
<?xml version="1.0" encoding="UTF-8"?>

<configuration xmlns:xsi="http://www.w3.org/2001/XMLSchema-instance" xsi:noNamespaceSchemaLocation="http://sumo.dlr.de/xsd/netconvertConfiguration.xsd">

    <input>
        <sumo-net-file value="/Users/lorenzocesconetto/Desktop/TFC/Sumo/campinas_1/campinas_1.net.xml"/>
    </input>

    <output>
        <output-file value="/Users/lorenzocesconetto/Desktop/TFC/Sumo/campinas_1/campinas_1.net.xml"/>
    </output>

    <processing>
        <no-turnarounds value="true"/>
        <offset.disable-normalization value="true"/>
        <lefthand value="false"/>
        <junctions.corner-detail value="0"/>
        <rectangular-lane-cut value="false"/>
    </processing>

</configuration>
-->

<net version="0.27" xmlns:xsi="http://www.w3.org/2001/XMLSchema-instance" xsi:noNamespaceSchemaLocation="http://sumo.dlr.de/xsd/net_file.xsd">

    <location netOffset="-285930.88,2526721.22" convBoundary="0.00,0.00,1322.37,1830.27" origBoundary="-47.085819,-22.834676,-47.072085,-22.809475" projParameter="+proj=utm +zone=23 +ellps=WGS84 +datum=WGS84 +units=m +no_defs"/>

    <type id="highway.bridleway" priority="1" numLanes="1" speed="2.78" allow="pedestrian" oneway="1" width="2.00"/>
    <type id="highway.bus_guideway" priority="1" numLanes="1" speed="8.33" allow="bus" oneway="1"/>
    <type id="highway.cycleway" priority="1" numLanes="1" speed="5.56" allow="bicycle" oneway="0" width="1.00"/>
    <type id="highway.footway" priority="1" numLanes="1" speed="2.78" allow="pedestrian" oneway="1" width="2.00"/>
    <type id="highway.ford" priority="1" numLanes="1" speed="2.78" allow="army" oneway="0"/>
    <type id="highway.living_street" priority="3" numLanes="1" speed="2.78" disallow="tram rail_urban rail rail_electric ship" oneway="0"/>
    <type id="highway.motorway" priority="13" numLanes="2" speed="44.44" allow="private emergency authority army vip passenger hov taxi bus coach delivery truck trailer motorcycle evehicle custom1 custom2" oneway="1"/>
    <type id="highway.motorway_link" priority="12" numLanes="1" speed="22.22" allow="private emergency authority army vip passenger hov taxi bus coach delivery truck trailer motorcycle evehicle custom1 custom2" oneway="1"/>
    <type id="highway.path" priority="1" numLanes="1" speed="2.78" allow="bicycle pedestrian" oneway="1" width="2.00"/>
    <type id="highway.pedestrian" priority="1" numLanes="1" speed="2.78" allow="pedestrian" oneway="1" width="2.00"/>
    <type id="highway.primary" priority="9" numLanes="2" speed="27.78" disallow="tram rail_urban rail rail_electric ship" oneway="0"/>
    <type id="highway.primary_link" priority="8" numLanes="1" speed="22.22" disallow="tram rail_urban rail rail_electric ship" oneway="0"/>
    <type id="highway.raceway" priority="14" numLanes="2" speed="83.33" allow="vip" oneway="0"/>
    <type id="highway.residential" priority="4" numLanes="1" speed="13.89" disallow="tram rail_urban rail rail_electric ship" oneway="0"/>
    <type id="highway.secondary" priority="7" numLanes="2" speed="27.78" disallow="tram rail_urban rail rail_electric ship" oneway="0"/>
    <type id="highway.secondary_link" priority="6" numLanes="1" speed="22.22" disallow="tram rail_urban rail rail_electric ship" oneway="0"/>
    <type id="highway.service" priority="2" numLanes="1" speed="5.56" allow="delivery bicycle pedestrian" oneway="0"/>
    <type id="highway.services" priority="1" numLanes="1" speed="8.33" disallow="tram rail_urban rail rail_electric ship" oneway="0"/>
    <type id="highway.stairs" priority="1" numLanes="1" speed="1.39" allow="pedestrian" oneway="1" width="2.00"/>
    <type id="highway.step" priority="1" numLanes="1" speed="1.39" allow="pedestrian" oneway="1" width="2.00"/>
    <type id="highway.steps" priority="1" numLanes="1" speed="1.39" allow="pedestrian" oneway="1" width="2.00"/>
    <type id="highway.tertiary" priority="6" numLanes="1" speed="22.22" disallow="tram rail_urban rail rail_electric ship" oneway="0"/>
    <type id="highway.tertiary_link" priority="5" numLanes="1" speed="22.22" disallow="tram rail_urban rail rail_electric ship" oneway="0"/>
    <type id="highway.track" priority="1" numLanes="1" speed="5.56" disallow="tram rail_urban rail rail_electric ship" oneway="0"/>
    <type id="highway.trunk" priority="11" numLanes="2" speed="27.78" disallow="tram rail_urban rail rail_electric bicycle pedestrian ship" oneway="0"/>
    <type id="highway.trunk_link" priority="10" numLanes="1" speed="22.22" disallow="tram rail_urban rail rail_electric bicycle pedestrian ship" oneway="0"/>
    <type id="highway.unclassified" priority="5" numLanes="1" speed="13.89" disallow="tram rail_urban rail rail_electric ship" oneway="0"/>
    <type id="highway.unsurfaced" priority="1" numLanes="1" speed="8.33" disallow="tram rail_urban rail rail_electric ship" oneway="0"/>
    <type id="railway.light_rail" priority="15" numLanes="1" speed="27.78" allow="rail_urban" oneway="1"/>
    <type id="railway.preserved" priority="15" numLanes="1" speed="27.78" allow="rail" oneway="1"/>
    <type id="railway.rail" priority="15" numLanes="1" speed="83.33" allow="rail rail_electric" oneway="1"/>
    <type id="railway.subway" priority="15" numLanes="1" speed="27.78" allow="rail_urban" oneway="1"/>
    <type id="railway.tram" priority="15" numLanes="1" speed="13.89" allow="tram" oneway="1"/>

    <edge id=":1037621519_0" function="internal">
        <lane id=":1037621519_0_0" index="0" disallow="tram rail_urban rail rail_electric ship" speed="22.22" length="4.81" shape="636.90,1064.58 637.87,1065.62 638.52,1066.35 639.14,1067.11 640.02,1068.24"/>
    </edge>
    <edge id=":1037621519_1" function="internal">
        <lane id=":1037621519_1_0" index="0" disallow="tram rail_urban rail rail_electric ship" speed="22.22" length="4.31" shape="634.50,1066.84 635.17,1067.73 635.58,1068.69 635.73,1069.72 635.63,1070.83"/>
    </edge>
    <edge id=":1037953328_0" function="internal">
        <lane id=":1037953328_0_0" index="0" disallow="tram rail_urban rail rail_electric ship" speed="22.23" length="6.02" shape="686.40,738.08 685.65,736.41 684.70,735.71 683.57,736.00 682.24,737.28"/>
    </edge>
    <edge id=":1037953328_1" function="internal">
        <lane id=":1037953328_1_0" index="0" disallow="tram rail_urban rail rail_electric ship" speed="16.67" length="16.58" shape="686.40,738.08 685.84,734.65 686.12,731.15 686.95,727.04 688.04,721.76"/>
    </edge>
    <edge id=":1037953328_2" function="internal">
        <lane id=":1037953328_2_0" index="0" disallow="tram rail_urban rail rail_electric ship" speed="25.00" length="16.71" shape="691.53,723.39 689.17,726.64 686.86,730.32 684.57,734.00 682.24,737.28"/>
    </edge>
    <edge id=":1037953328_3" function="internal">
        <lane id=":1037953328_3_0" index="0" disallow="tram rail_urban rail rail_electric ship" speed="19.45" length="8.51" shape="691.53,723.39 689.49,725.48 688.22,725.91 687.74,724.67 688.04,721.76"/>
    </edge>
    <edge id=":1037953328_4" function="internal">
        <lane id=":1037953328_4_0" index="0" disallow="tram rail_urban rail rail_electric ship" speed="22.23" length="15.14" shape="679.67,735.21 681.61,732.40 682.90,729.48 683.86,725.91 684.79,721.16"/>
    </edge>
    <edge id=":1037953328_5" function="internal">
        <lane id=":1037953328_5_0" index="0" disallow="tram rail_urban rail rail_electric ship" speed="27.78" length="2.41" shape="679.67,735.21 681.09,734.76 681.99,734.96"/>
    </edge>
    <edge id=":1037953328_6" function="internal">
        <lane id=":1037953328_6_0" index="0" speed="27.78" length="2.41" shape="681.99,734.96 682.38,735.79 682.24,737.28"/>
    </edge>
    <edge id=":1037953392_0" function="internal">
        <lane id=":1037953392_0_0" index="0" disallow="tram rail_urban rail rail_electric ship" speed="13.89" length="12.69" shape="710.38,1030.97 709.50,1034.26 708.66,1037.11 707.55,1039.84 705.87,1042.76"/>
    </edge>
    <edge id=":1037953392_1" function="internal">
        <lane id=":1037953392_1_0" index="0" disallow="tram rail_urban rail rail_electric ship" speed="13.89" length="6.70" shape="710.38,1030.97 708.55,1035.46 707.09,1036.60"/>
    </edge>
    <edge id=":1037953392_2" function="internal">
        <lane id=":1037953392_2_0" index="0" disallow="tram rail_urban rail rail_electric ship" speed="13.89" length="2.41" shape="710.38,1030.97 709.25,1031.95 708.35,1032.13"/>
    </edge>
    <edge id=":1037953392_9" function="internal">
        <lane id=":1037953392_9_0" index="0" speed="13.89" length="8.77" shape="707.09,1036.60 706.27,1037.24 703.54,1036.30 700.36,1032.64"/>
    </edge>
    <edge id=":1037953392_10" function="internal">
        <lane id=":1037953392_10_0" index="0" speed="13.89" length="2.41" shape="708.35,1032.13 707.66,1031.51 707.19,1030.10"/>
    </edge>
    <edge id=":1037953392_3" function="internal">
        <lane id=":1037953392_3_0" index="0" disallow="tram rail_urban rail rail_electric ship" speed="13.89" length="6.34" shape="703.09,1030.78 704.39,1032.28 705.51,1032.67 706.45,1031.94 707.19,1030.10"/>
    </edge>
    <edge id=":1037953392_4" function="internal">
        <lane id=":1037953392_4_0" index="0" disallow="tram rail_urban rail rail_electric ship" speed="13.89" length="12.95" shape="703.09,1030.78 705.30,1034.53 706.50,1037.77 706.69,1040.52 705.87,1042.76"/>
    </edge>
    <edge id=":1037953392_5" function="internal">
        <lane id=":1037953392_5_0" index="0" disallow="tram rail_urban rail rail_electric ship" speed="13.89" length="4.82" shape="703.09,1030.78 703.10,1032.27 702.65,1033.08 701.74,1033.20 700.36,1032.64"/>
    </edge>
    <edge id=":1037953392_6" function="internal">
        <lane id=":1037953392_6_0" index="0" disallow="tram rail_urban rail rail_electric ship" speed="13.89" length="9.09" shape="703.12,1040.94 703.48,1039.61 703.14,1037.79 702.10,1035.46 700.36,1032.64"/>
    </edge>
    <edge id=":1037953392_7" function="internal">
        <lane id=":1037953392_7_0" index="0" disallow="tram rail_urban rail rail_electric ship" speed="13.89" length="11.65" shape="703.12,1040.94 704.74,1038.16 705.70,1035.76 706.39,1033.24 707.19,1030.10"/>
    </edge>
    <edge id=":1037953392_8" function="internal">
        <lane id=":1037953392_8_0" index="0" disallow="tram rail_urban rail rail_electric ship" speed="13.89" length="2.41" shape="703.12,1040.94 704.49,1040.36 705.41,1040.47"/>
    </edge>
    <edge id=":1037953392_11" function="internal">
        <lane id=":1037953392_11_0" index="0" speed="13.89" length="2.41" shape="705.41,1040.47 705.86,1041.27 705.87,1042.76"/>
    </edge>
    <edge id=":1037953398_0" function="internal">
        <lane id=":1037953398_0_0" index="0" disallow="tram rail_urban rail rail_electric ship" speed="13.89" length="7.05" shape="722.56,992.03 721.13,993.52 720.36,994.73 719.89,996.12 719.36,998.14"/>
    </edge>
    <edge id=":1037953398_1" function="internal">
        <lane id=":1037953398_1_0" index="0" allow="delivery bicycle pedestrian" speed="9.73" length="2.67" shape="722.56,992.03 720.87,993.22 720.29,993.40"/>
    </edge>
    <edge id=":1037953398_2" function="internal">
        <lane id=":1037953398_2_0" index="0" disallow="tram rail_urban rail rail_electric ship" speed="13.89" length="1.64" shape="722.56,992.03 721.08,992.31 720.95,992.26"/>
    </edge>
    <edge id=":1037953398_9" function="internal">
        <lane id=":1037953398_9_0" index="0" speed="9.73" length="6.41" shape="720.29,993.40 718.88,993.85 716.59,993.93 714.00,993.46"/>
    </edge>
    <edge id=":1037953398_10" function="internal">
        <lane id=":1037953398_10_0" index="0" speed="13.89" length="3.21" shape="720.95,992.26 720.21,992.01 719.92,991.12 720.23,989.66"/>
    </edge>
    <edge id=":1037953398_3" function="internal">
        <lane id=":1037953398_3_0" index="0" disallow="tram rail_urban rail rail_electric ship" speed="9.73" length="5.89" shape="714.87,990.28 717.03,990.74 718.65,990.79 719.72,990.43 720.23,989.66"/>
    </edge>
    <edge id=":1037953398_4" function="internal">
        <lane id=":1037953398_4_0" index="0" disallow="tram rail_urban rail rail_electric ship" speed="9.73" length="10.33" shape="714.87,990.28 717.46,991.40 719.08,993.09 719.71,995.33 719.36,998.14"/>
    </edge>
    <edge id=":1037953398_5" function="internal">
        <lane id=":1037953398_5_0" index="0" allow="delivery bicycle pedestrian" speed="5.56" length="4.82" shape="714.87,990.28 715.84,991.40 716.02,992.31 715.41,992.99 714.00,993.46"/>
    </edge>
    <edge id=":1037953398_6" function="internal">
        <lane id=":1037953398_6_0" index="0" allow="delivery bicycle pedestrian" speed="9.73" length="5.00" shape="716.17,997.27 716.34,995.91 716.04,994.82 715.26,994.01 714.00,993.46"/>
    </edge>
    <edge id=":1037953398_7" function="internal">
        <lane id=":1037953398_7_0" index="0" disallow="tram rail_urban rail rail_electric ship" speed="13.89" length="8.71" shape="716.17,997.27 717.14,994.91 718.24,993.47 719.32,992.03 720.23,989.66"/>
    </edge>
    <edge id=":1037953398_8" function="internal">
        <lane id=":1037953398_8_0" index="0" disallow="tram rail_urban rail rail_electric ship" speed="13.89" length="2.41" shape="716.17,997.27 717.30,996.29 718.20,996.11"/>
    </edge>
    <edge id=":1037953398_11" function="internal">
        <lane id=":1037953398_11_0" index="0" speed="13.89" length="2.41" shape="718.20,996.11 718.89,996.73 719.36,998.14"/>
    </edge>
    <edge id=":1080993847_0" function="internal">
        <lane id=":1080993847_0_0" index="0" allow="bicycle" speed="13.89" length="13.21" width="1.00" shape="607.48,1104.21 604.04,1103.77 600.93,1103.34 597.85,1102.78 594.48,1101.98"/>
    </edge>
    <edge id=":1080993847_1" function="internal">
        <lane id=":1080993847_1_0" index="0" disallow="tram rail_urban rail rail_electric ship" speed="19.45" length="10.16" shape="607.48,1104.21 604.64,1103.44 602.84,1102.02 602.10,1099.96 602.42,1097.25"/>
    </edge>
    <edge id=":1080993847_2" function="internal">
        <lane id=":1080993847_2_0" index="0" allow="bicycle" speed="13.89" length="8.18" width="1.00" shape="607.48,1104.21 605.25,1103.63 604.65,1102.69 605.66,1101.40 608.30,1099.75"/>
    </edge>
    <edge id=":1080993847_3" function="internal">
        <lane id=":1080993847_3_0" index="0" allow="bicycle" speed="5.56" length="14.72" width="1.00" shape="608.81,1100.72 605.39,1102.09 601.80,1102.72 598.13,1102.66 594.48,1101.98"/>
    </edge>
    <edge id=":1080993847_4" function="internal">
        <lane id=":1080993847_4_0" index="0" disallow="tram rail_urban rail rail_electric ship" speed="11.12" length="6.53" shape="608.81,1100.72 606.88,1101.48 605.70,1101.30 605.28,1100.18 605.60,1098.14"/>
    </edge>
    <edge id=":1080993847_5" function="internal">
        <lane id=":1080993847_5_0" index="0" allow="bicycle" speed="5.56" length="1.61" width="1.00" shape="608.81,1100.72 608.32,1100.67 608.07,1100.49 608.06,1100.18 608.30,1099.75"/>
    </edge>
    <edge id=":1080993847_6" function="internal">
        <lane id=":1080993847_6_0" index="0" disallow="tram rail_urban rail rail_electric ship" speed="11.12" length="7.11" shape="594.76,1100.91 596.16,1100.93 597.38,1100.18 598.40,1098.66 599.24,1096.37"/>
    </edge>
    <edge id=":1080993847_7" function="internal">
        <lane id=":1080993847_7_0" index="0" allow="bicycle" speed="5.56" length="13.93" width="1.00" shape="594.76,1100.91 598.29,1101.61 601.68,1101.70 605.00,1101.10 608.30,1099.75"/>
    </edge>
    <edge id=":1080993847_8" function="internal">
        <lane id=":1080993847_8_0" index="0" allow="bicycle" speed="5.56" length="1.61" width="1.00" shape="594.76,1100.91 595.09,1101.29 595.15,1101.59 594.95,1101.82 594.48,1101.98"/>
    </edge>
    <edge id=":1080993847_9" function="internal">
        <lane id=":1080993847_9_0" index="0" allow="bicycle" speed="11.12" length="7.18" width="1.00" shape="600.05,1105.68 599.91,1104.68 598.93,1103.73 597.12,1102.83 594.48,1101.98"/>
    </edge>
    <edge id=":1080993847_10" function="internal">
        <lane id=":1080993847_10_0" index="0" disallow="tram rail_urban rail rail_electric ship" speed="16.67" length="8.75" shape="600.05,1105.68 602.42,1097.25"/>
        <lane id=":1080993847_10_1" index="1" disallow="tram rail_urban rail rail_electric ship" speed="16.67" length="8.75" shape="603.23,1106.55 605.60,1098.14"/>
    </edge>
    <edge id=":1080993847_12" function="internal">
        <lane id=":1080993847_12_0" index="0" allow="bicycle" speed="11.12" length="8.72" width="1.00" shape="603.23,1106.55 604.04,1104.32 605.15,1102.45 606.57,1100.92 608.30,1099.75"/>
    </edge>
    <edge id=":1080993863_0" function="internal">
        <lane id=":1080993863_0_0" index="0" disallow="tram rail_urban rail rail_electric ship" speed="16.67" length="9.67" shape="621.69,1096.05 619.97,1096.59 618.31,1097.87 616.70,1099.90 615.15,1102.68"/>
    </edge>
    <edge id=":1080993863_1" function="internal">
        <lane id=":1080993863_1_0" index="0" allow="bicycle" speed="5.56" length="13.18" width="1.00" shape="621.69,1096.05 618.28,1096.60 615.32,1097.54 612.45,1098.82 609.36,1100.43"/>
    </edge>
    <edge id=":1080993863_2" function="internal">
        <lane id=":1080993863_2_0" index="0" allow="bicycle" speed="5.56" length="1.61" width="1.00" shape="621.69,1096.05 621.25,1095.81 621.09,1095.55 621.20,1095.26 621.58,1094.95"/>
    </edge>
    <edge id=":1080993863_3" function="internal">
        <lane id=":1080993863_3_0" index="0" allow="bicycle" speed="16.67" length="4.29" width="1.00" shape="618.67,1092.89 618.72,1093.91 619.23,1094.59 620.18,1094.94 621.58,1094.95"/>
    </edge>
    <edge id=":1080993863_4" function="internal">
        <lane id=":1080993863_4_0" index="0" disallow="tram rail_urban rail rail_electric ship" speed="27.78" length="9.97" shape="618.67,1092.89 618.13,1095.93 617.49,1097.96 616.56,1099.90 615.15,1102.68"/>
        <lane id=":1080993863_4_1" index="1" disallow="tram rail_urban rail rail_electric ship" speed="27.78" length="9.97" shape="615.40,1092.43 614.91,1095.17 614.31,1096.99 613.46,1098.73 612.18,1101.24"/>
    </edge>
    <edge id=":1080993863_6" function="internal">
        <lane id=":1080993863_6_0" index="0" allow="bicycle" speed="16.67" length="10.41" width="1.00" shape="615.40,1092.43 614.75,1094.87 613.52,1097.02 611.73,1098.87 609.36,1100.43"/>
    </edge>
    <edge id=":1080993863_7" function="internal">
        <lane id=":1080993863_7_0" index="0" allow="bicycle" speed="5.56" length="13.60" width="1.00" shape="608.85,1099.46 612.00,1097.83 615.00,1096.51 618.11,1095.53 621.58,1094.95"/>
    </edge>
    <edge id=":1080993863_8" function="internal">
        <lane id=":1080993863_8_0" index="0" disallow="tram rail_urban rail rail_electric ship" speed="16.67" length="6.87" shape="608.85,1099.46 611.18,1098.44 612.51,1098.40 612.84,1099.34 612.18,1101.24"/>
    </edge>
    <edge id=":1080993863_9" function="internal">
        <lane id=":1080993863_9_0" index="0" allow="bicycle" speed="5.56" length="1.61" width="1.00" shape="608.85,1099.46 609.34,1099.51 609.59,1099.68 609.60,1099.99 609.36,1100.43"/>
    </edge>
    <edge id=":1080993868_0" function="internal">
        <lane id=":1080993868_0_0" index="0" disallow="tram rail_urban rail rail_electric ship" speed="9.73" length="4.14" shape="532.71,1077.84 531.45,1077.32 530.41,1077.21 529.61,1077.48 529.03,1078.16"/>
    </edge>
    <edge id=":1080993868_1" function="internal">
        <lane id=":1080993868_1_0" index="0" allow="bicycle" speed="5.56" length="1.61" width="1.00" shape="532.71,1077.84 532.47,1077.41 532.47,1077.10 532.72,1076.92 533.21,1076.86"/>
    </edge>
    <edge id=":1080993868_2" function="internal">
        <lane id=":1080993868_2_0" index="0" allow="bicycle" speed="9.73" length="4.15" width="1.00" shape="531.28,1073.68 531.09,1074.53 531.35,1075.35 532.06,1076.13 533.21,1076.86"/>
    </edge>
    <edge id=":1080993868_3" function="internal">
        <lane id=":1080993868_3_0" index="0" disallow="tram rail_urban rail rail_electric ship" speed="13.89" length="5.01" shape="531.28,1073.68 529.03,1078.16"/>
    </edge>
    <edge id=":1117542326_0" function="internal">
        <lane id=":1117542326_0_0" index="0" allow="bicycle" speed="5.56" length="1.61" width="1.00" shape="1309.77,1795.17 1309.86,1795.65 1309.76,1795.94 1309.47,1796.04 1308.99,1795.93"/>
    </edge>
    <edge id=":1940725944_0" function="internal">
        <lane id=":1940725944_0_0" index="0" disallow="tram rail_urban rail rail_electric ship" speed="20.84" length="5.07" shape="643.33,1007.50 641.94,1007.32 640.85,1007.64 640.06,1008.46 639.57,1009.77"/>
    </edge>
    <edge id=":1940725944_1" function="internal">
        <lane id=":1940725944_1_0" index="0" disallow="tram rail_urban rail rail_electric ship" speed="13.89" length="4.82" shape="643.33,1007.50 642.36,1006.38 642.18,1005.47 642.80,1004.79 644.21,1004.33"/>
    </edge>
    <edge id=":1940725944_2" function="internal">
        <lane id=":1940725944_2_0" index="0" disallow="tram rail_urban rail rail_electric ship" speed="20.84" length="7.97" shape="638.74,999.59 638.77,1001.00 639.69,1002.26 641.51,1003.37 644.21,1004.33"/>
    </edge>
    <edge id=":1940725944_3" function="internal">
        <lane id=":1940725944_3_0" index="0" disallow="tram rail_urban rail rail_electric ship" speed="27.78" length="9.86" shape="638.74,999.59 636.35,1009.06"/>
        <lane id=":1940725944_3_1" index="1" disallow="tram rail_urban rail rail_electric ship" speed="27.78" length="9.86" shape="635.56,998.71 633.12,1008.36"/>
    </edge>
    <edge id=":1940725945_0" function="internal">
        <lane id=":1940725945_0_0" index="0" disallow="tram rail_urban rail rail_electric ship" speed="25.00" length="6.10" shape="617.52,1105.76 615.88,1105.71 614.56,1106.18 613.58,1107.18 612.93,1108.70"/>
    </edge>
    <edge id=":1940725945_1" function="internal">
        <lane id=":1940725945_1_0" index="0" disallow="tram rail_urban rail rail_electric ship" speed="22.22" length="9.96" shape="617.52,1105.76 607.68,1104.23"/>
    </edge>
    <edge id=":1940725945_2" function="internal">
        <lane id=":1940725945_2_0" index="0" disallow="tram rail_urban rail rail_electric ship" speed="27.78" length="6.55" shape="615.06,1102.86 614.27,1104.53 613.79,1105.70 613.42,1106.92 612.93,1108.70"/>
        <lane id=":1940725945_2_1" index="1" disallow="tram rail_urban rail rail_electric ship" speed="27.78" length="6.55" shape="612.10,1101.42 611.23,1103.25 610.70,1104.54 610.28,1105.87 609.75,1107.84"/>
    </edge>
    <edge id=":1940725945_4" function="internal">
        <lane id=":1940725945_4_0" index="0" disallow="tram rail_urban rail rail_electric ship" speed="25.00" length="5.63" shape="612.10,1101.42 611.24,1102.79 610.22,1103.72 609.03,1104.20 607.68,1104.23"/>
    </edge>
    <edge id=":1940725948_0" function="internal">
        <lane id=":1940725948_0_0" index="0" disallow="tram rail_urban rail rail_electric ship" speed="22.22" length="3.66" shape="640.09,1120.96 639.33,1120.18 638.81,1119.66 638.26,1119.15 637.45,1118.43"/>
    </edge>
    <edge id=":1940725948_1" function="internal">
        <lane id=":1940725948_1_0" index="0" disallow="tram rail_urban rail rail_electric ship" speed="22.22" length="3.91" shape="642.47,1118.67 641.69,1117.83 641.23,1117.16 640.97,1116.41 640.75,1115.28"/>
    </edge>
    <edge id=":2320612114_0" function="internal">
        <lane id=":2320612114_0_0" index="0" allow="bicycle" speed="5.56" length="6.46" width="1.00" shape="643.86,1105.83 642.52,1104.46 641.56,1103.56 640.54,1102.74 638.98,1101.62"/>
    </edge>
    <edge id=":2320612114_1" function="internal">
        <lane id=":2320612114_1_0" index="0" disallow="tram rail_urban rail rail_electric ship" speed="13.89" length="5.48" shape="643.86,1105.83 642.95,1104.62 642.55,1103.39 642.67,1102.14 643.31,1100.88"/>
    </edge>
    <edge id=":2320612114_2" function="internal">
        <lane id=":2320612114_2_0" index="0" allow="bicycle" speed="5.56" length="1.61" width="1.00" shape="643.86,1105.83 643.77,1105.34 643.87,1105.05 644.16,1104.96 644.65,1105.06"/>
    </edge>
    <edge id=":2320612114_3" function="internal">
        <lane id=":2320612114_3_0" index="0" disallow="tram rail_urban rail rail_electric ship" speed="13.89" length="4.15" shape="639.62,1100.72 640.80,1101.41 641.81,1101.66 642.64,1101.49 643.31,1100.88"/>
    </edge>
    <edge id=":2320612114_4" function="internal">
        <lane id=":2320612114_4_0" index="0" allow="bicycle" speed="5.56" length="6.66" width="1.00" shape="639.62,1100.72 641.22,1101.88 642.28,1102.72 643.26,1103.65 644.65,1105.06"/>
    </edge>
    <edge id=":2320612114_5" function="internal">
        <lane id=":2320612114_5_0" index="0" allow="bicycle" speed="5.56" length="1.61" width="1.00" shape="639.62,1100.72 639.80,1101.18 639.75,1101.49 639.48,1101.63 638.98,1101.62"/>
    </edge>
    <edge id=":2320612114_6" function="internal">
        <lane id=":2320612114_6_0" index="0" allow="bicycle" speed="13.89" length="4.70" width="1.00" shape="640.32,1105.62 640.70,1104.56 640.61,1103.54 640.03,1102.55 638.98,1101.62"/>
    </edge>
    <edge id=":2320612114_7" function="internal">
        <lane id=":2320612114_7_0" index="0" disallow="tram rail_urban rail rail_electric ship" speed="22.22" length="5.61" shape="640.32,1105.62 641.15,1104.18 641.73,1103.20 642.35,1102.24 643.31,1100.88"/>
    </edge>
    <edge id=":2320612114_8" function="internal">
        <lane id=":2320612114_8_0" index="0" allow="bicycle" speed="13.89" length="5.37" width="1.00" shape="640.32,1105.62 641.27,1104.41 642.30,1103.91 643.43,1104.12 644.65,1105.06"/>
    </edge>
    <edge id=":3407176273_0" function="internal">
        <lane id=":3407176273_0_0" index="0" allow="bicycle pedestrian" speed="12.50" length="4.66" width="2.00" shape="677.85,1112.67 678.81,1113.39 679.77,1113.53 680.76,1113.10 681.76,1112.11"/>
    </edge>
    <edge id=":3407176273_1" function="internal">
        <lane id=":3407176273_1_0" index="0" disallow="tram rail_urban rail rail_electric ship" speed="22.22" length="5.02" shape="677.85,1112.67 681.30,1116.32"/>
    </edge>
    <edge id=":4193498610_0" function="internal">
        <lane id=":4193498610_0_0" index="0" disallow="tram rail_urban rail rail_electric ship" speed="13.89" length="4.82" shape="773.95,750.82 775.01,749.77 775.91,749.54 776.63,750.11 777.19,751.49"/>
    </edge>
    <edge id=":4297300450_0" function="internal">
        <lane id=":4297300450_0_0" index="0" disallow="tram rail_urban rail rail_electric ship" speed="13.89" length="5.69" shape="473.94,1189.00 472.25,1188.61 470.86,1188.69 469.76,1189.26 468.95,1190.30"/>
    </edge>
    <edge id=":4297300450_1" function="internal">
        <lane id=":4297300450_1_0" index="0" disallow="tram rail_urban rail rail_electric ship" speed="13.89" length="8.82" shape="473.94,1189.00 471.51,1188.08 469.94,1187.20 468.60,1185.97 466.87,1184.01"/>
    </edge>
    <edge id=":4297300450_2" function="internal">
        <lane id=":4297300450_2_0" index="0" disallow="tram rail_urban rail rail_electric ship" speed="13.89" length="2.52" shape="473.94,1189.00 473.04,1187.82 472.92,1186.90 473.00,1186.82"/>
    </edge>
    <edge id=":4297300450_9" function="internal">
        <lane id=":4297300450_9_0" index="0" speed="13.89" length="2.30" shape="473.00,1186.82 473.58,1186.26 475.02,1185.88"/>
    </edge>
    <edge id=":4297300450_3" function="internal">
        <lane id=":4297300450_3_0" index="0" disallow="tram rail_urban rail rail_electric ship" speed="13.89" length="5.61" shape="473.66,1181.34 473.06,1182.91 473.08,1184.19 473.73,1185.18 475.02,1185.88"/>
    </edge>
    <edge id=":4297300450_4" function="internal">
        <lane id=":4297300450_4_0" index="0" disallow="tram rail_urban rail rail_electric ship" speed="13.89" length="10.12" shape="473.66,1181.34 468.95,1190.30"/>
    </edge>
    <edge id=":4297300450_5" function="internal">
        <lane id=":4297300450_5_0" index="0" disallow="tram rail_urban rail rail_electric ship" speed="13.89" length="9.04" shape="473.66,1181.34 471.94,1183.93 470.23,1185.24 468.54,1185.27 466.87,1184.01"/>
    </edge>
    <edge id=":4297300450_6" function="internal">
        <lane id=":4297300450_6_0" index="0" disallow="tram rail_urban rail rail_electric ship" speed="13.89" length="7.10" shape="469.35,1181.84 470.74,1183.41 471.81,1184.41 473.07,1185.14 475.02,1185.88"/>
    </edge>
    <edge id=":4297300450_7" function="internal">
        <lane id=":4297300450_7_0" index="0" disallow="tram rail_urban rail rail_electric ship" speed="13.89" length="3.93" shape="469.35,1181.84 470.26,1183.43 470.50,1185.37 470.47,1185.51"/>
    </edge>
    <edge id=":4297300450_8" function="internal">
        <lane id=":4297300450_8_0" index="0" disallow="tram rail_urban rail rail_electric ship" speed="13.89" length="2.41" shape="469.35,1181.84 469.55,1183.31 469.20,1184.17"/>
    </edge>
    <edge id=":4297300450_10" function="internal">
        <lane id=":4297300450_10_0" index="0" speed="13.89" length="5.06" shape="470.47,1185.51 470.06,1187.66 468.95,1190.30"/>
    </edge>
    <edge id=":4297300450_11" function="internal">
        <lane id=":4297300450_11_0" index="0" speed="13.89" length="2.41" shape="469.20,1184.17 468.31,1184.40 466.87,1184.01"/>
    </edge>
    <edge id=":4297300464_0" function="internal">
        <lane id=":4297300464_0_0" index="0" disallow="tram rail_urban rail rail_electric ship" speed="25.00" length="7.70" shape="623.95,1063.37 623.42,1065.95 623.78,1067.22 625.02,1067.19 627.14,1065.86"/>
    </edge>
    <edge id=":4297300464_1" function="internal">