<?xml version="1.0" encoding="UTF-8"?>

<!-- generated on Sun Sep 23 12:59:45 2018 by Netedit Version 0.30.0
<?xml version="1.0" encoding="UTF-8"?>

<configuration xmlns:xsi="http://www.w3.org/2001/XMLSchema-instance" xsi:noNamespaceSchemaLocation="http://sumo.dlr.de/xsd/netconvertConfiguration.xsd">

    <input>
        <sumo-net-file value="/Users/lorenzocesconetto/PyCharmProjects/sumo-tfc/src/new_manhattan/new_manhattan.net.xml"/>
    </input>

    <output>
        <output-file value="/Users/lorenzocesconetto/PyCharmProjects/sumo-tfc/src/new_manhattan/new_manhattan.net.xml"/>
    </output>

    <processing>
        <no-turnarounds value="true"/>
        <offset.disable-normalization value="true"/>
        <lefthand value="false"/>
        <junctions.corner-detail value="0"/>
        <rectangular-lane-cut value="false"/>
    </processing>

</configuration>
-->

<net version="0.27" xmlns:xsi="http://www.w3.org/2001/XMLSchema-instance" xsi:noNamespaceSchemaLocation="http://sumo.dlr.de/xsd/net_file.xsd">

    <location netOffset="0.00,0.00" convBoundary="-125.00,-125.00,325.00,325.00" origBoundary="0.00,0.00,200.00,200.00" projParameter="!"/>

    <edge id=":0/0_0" function="internal">
        <lane id=":0/0_0_0" index="0" speed="13.89" length="5.00" shape="-51.65,-45.25 -51.84,-46.61 -52.42,-47.57 -53.39,-48.16 -54.75,-48.35"/>
    </edge>
    <edge id=":0/0_1" function="internal">
        <lane id=":0/0_1_0" index="0" speed="13.89" length="9.50" shape="-51.65,-45.25 -51.65,-54.75"/>
    </edge>
    <edge id=":0/0_2" function="internal">
        <lane id=":0/0_2_0" index="0" speed="13.90" length="10.32" shape="-51.65,-45.25 -51.25,-48.05 -50.05,-50.05 -48.05,-51.25 -45.25,-51.65"/>
    </edge>
    <edge id=":0/0_3" function="internal">
        <lane id=":0/0_3_0" index="0" speed="13.90" length="2.69" shape="-51.65,-45.25 -50.82,-46.49 -50.00,-46.90 -49.75,-46.77"/>
    </edge>
    <edge id=":0/0_14" function="internal">
        <lane id=":0/0_14_0" index="0" speed="13.90" length="2.13" shape="-49.75,-46.77 -49.17,-46.49 -48.35,-45.25"/>
    </edge>
    <edge id=":0/0_4" function="internal">
        <lane id=":0/0_4_0" index="0" speed="13.90" length="5.00" shape="-45.25,-48.35 -46.61,-48.16 -47.57,-47.58 -48.16,-46.61 -48.35,-45.25"/>
    </edge>
    <edge id=":0/0_5" function="internal">
        <lane id=":0/0_5_0" index="0" speed="13.89" length="9.50" shape="-45.25,-48.35 -54.75,-48.35"/>
    </edge>
    <edge id=":0/0_6" function="internal">
        <lane id=":0/0_6_0" index="0" speed="13.89" length="5.16" shape="-45.25,-48.35 -48.05,-48.75 -50.05,-49.95"/>
    </edge>
    <edge id=":0/0_7" function="internal">
        <lane id=":0/0_7_0" index="0" speed="13.90" length="4.82" shape="-45.25,-48.35 -46.49,-49.18 -46.90,-50.00 -46.49,-50.83 -45.25,-51.65"/>
    </edge>
    <edge id=":0/0_15" function="internal">
        <lane id=":0/0_15_0" index="0" speed="13.89" length="5.16" shape="-50.05,-49.95 -51.25,-51.95 -51.65,-54.75"/>
    </edge>
    <edge id=":0/0_8" function="internal">
        <lane id=":0/0_8_0" index="0" speed="13.89" length="5.00" shape="-48.35,-54.75 -48.16,-53.39 -47.58,-52.43 -46.61,-51.84 -45.25,-51.65"/>
    </edge>
    <edge id=":0/0_9" function="internal">
        <lane id=":0/0_9_0" index="0" speed="13.89" length="9.50" shape="-48.35,-54.75 -48.35,-45.25"/>
    </edge>
    <edge id=":0/0_10" function="internal">
        <lane id=":0/0_10_0" index="0" speed="13.89" length="10.32" shape="-48.35,-54.75 -48.75,-51.95 -49.95,-49.95 -51.95,-48.75 -54.75,-48.35"/>
    </edge>
    <edge id=":0/0_11" function="internal">
        <lane id=":0/0_11_0" index="0" speed="13.89" length="5.00" shape="-54.75,-51.65 -53.39,-51.84 -52.43,-52.42 -51.84,-53.39 -51.65,-54.75"/>
    </edge>
    <edge id=":0/0_12" function="internal">
        <lane id=":0/0_12_0" index="0" speed="13.89" length="9.50" shape="-54.75,-51.65 -45.25,-51.65"/>
    </edge>
    <edge id=":0/0_13" function="internal">
        <lane id=":0/0_13_0" index="0" speed="13.89" length="3.44" shape="-54.75,-51.65 -51.95,-51.25 -51.42,-50.93"/>
    </edge>
    <edge id=":0/0_16" function="internal">
        <lane id=":0/0_16_0" index="0" speed="13.89" length="6.88" shape="-51.42,-50.93 -49.95,-50.05 -48.75,-48.05 -48.35,-45.25"/>
    </edge>
    <edge id=":0/1_0" function="internal">
        <lane id=":0/1_0_0" index="0" speed="13.89" length="5.00" shape="-51.65,104.75 -51.84,103.39 -52.42,102.43 -53.39,101.84 -54.75,101.65"/>
    </edge>
    <edge id=":0/1_1" function="internal">
        <lane id=":0/1_1_0" index="0" speed="13.90" length="9.50" shape="-51.65,104.75 -51.65,95.25"/>
    </edge>
    <edge id=":0/1_2" function="internal">
        <lane id=":0/1_2_0" index="0" speed="13.90" length="5.28" shape="-51.65,104.75 -51.25,101.95 -50.05,99.95 -49.95,99.89"/>
    </edge>
    <edge id=":0/1_3" function="internal">
        <lane id=":0/1_3_0" index="0" speed="13.90" length="2.41" shape="-51.65,104.75 -50.82,103.51 -50.00,103.10"/>
    </edge>
    <edge id=":0/1_15" function="internal">
        <lane id=":0/1_15_0" index="0" speed="13.90" length="5.04" shape="-49.95,99.89 -48.05,98.75 -45.25,98.35"/>
    </edge>
    <edge id=":0/1_16" function="internal">
        <lane id=":0/1_16_0" index="0" speed="13.90" length="2.41" shape="-50.00,103.10 -49.17,103.51 -48.35,104.75"/>
    </edge>
    <edge id=":0/1_4" function="internal">
        <lane id=":0/1_4_0" index="0" speed="13.90" length="5.00" shape="-45.25,101.65 -46.61,101.84 -47.57,102.43 -48.16,103.39 -48.35,104.75"/>
    </edge>
    <edge id=":0/1_5" function="internal">
        <lane id=":0/1_5_0" index="0" speed="13.89" length="9.50" shape="-45.25,101.65 -54.75,101.65"/>
    </edge>
    <edge id=":0/1_6" function="internal">
        <lane id=":0/1_6_0" index="0" speed="13.90" length="5.28" shape="-45.25,101.65 -48.05,101.25 -50.05,100.05 -50.11,99.95"/>
    </edge>
    <edge id=":0/1_7" function="internal">
        <lane id=":0/1_7_0" index="0" speed="13.90" length="2.41" shape="-45.25,101.65 -46.49,100.82 -46.90,100.00"/>
    </edge>
    <edge id=":0/1_17" function="internal">
        <lane id=":0/1_17_0" index="0" speed="13.90" length="5.04" shape="-50.11,99.95 -51.25,98.05 -51.65,95.25"/>
    </edge>
    <edge id=":0/1_18" function="internal">
        <lane id=":0/1_18_0" index="0" speed="13.90" length="2.41" shape="-46.90,100.00 -46.49,99.17 -45.25,98.35"/>
    </edge>
    <edge id=":0/1_8" function="internal">
        <lane id=":0/1_8_0" index="0" speed="13.90" length="5.00" shape="-48.35,95.25 -48.16,96.61 -47.58,97.57 -46.61,98.16 -45.25,98.35"/>
    </edge>
    <edge id=":0/1_9" function="internal">
        <lane id=":0/1_9_0" index="0" speed="13.90" length="9.50" shape="-48.35,95.25 -48.35,104.75"/>
    </edge>
    <edge id=":0/1_10" function="internal">
        <lane id=":0/1_10_0" index="0" speed="13.89" length="5.28" shape="-48.35,95.25 -48.75,98.05 -49.95,100.05 -50.05,100.11"/>
    </edge>
    <edge id=":0/1_11" function="internal">
        <lane id=":0/1_11_0" index="0" speed="13.90" length="2.41" shape="-48.35,95.25 -49.18,96.49 -50.00,96.90"/>
    </edge>
    <edge id=":0/1_19" function="internal">
        <lane id=":0/1_19_0" index="0" speed="13.89" length="5.04" shape="-50.05,100.11 -51.95,101.25 -54.75,101.65"/>
    </edge>
    <edge id=":0/1_20" function="internal">
        <lane id=":0/1_20_0" index="0" speed="13.90" length="2.41" shape="-50.00,96.90 -50.83,96.49 -51.65,95.25"/>
    </edge>
    <edge id=":0/1_12" function="internal">
        <lane id=":0/1_12_0" index="0" speed="13.89" length="5.00" shape="-54.75,98.35 -53.39,98.16 -52.43,97.57 -51.84,96.61 -51.65,95.25"/>
    </edge>
    <edge id=":0/1_13" function="internal">
        <lane id=":0/1_13_0" index="0" speed="13.89" length="9.50" shape="-54.75,98.35 -45.25,98.35"/>
    </edge>
    <edge id=":0/1_14" function="internal">
        <lane id=":0/1_14_0" index="0" speed="13.89" length="5.28" shape="-54.75,98.35 -51.95,98.75 -49.95,99.95 -49.89,100.05"/>
    </edge>
    <edge id=":0/1_21" function="internal">
        <lane id=":0/1_21_0" index="0" speed="13.89" length="5.04" shape="-49.89,100.05 -48.75,101.95 -48.35,104.75"/>
    </edge>
    <edge id=":0/2_0" function="internal">
        <lane id=":0/2_0_0" index="0" speed="13.89" length="5.00" shape="-51.65,254.75 -51.84,253.39 -52.42,252.42 -53.39,251.84 -54.75,251.65"/>
    </edge>
    <edge id=":0/2_1" function="internal">
        <lane id=":0/2_1_0" index="0" speed="13.89" length="9.50" shape="-51.65,254.75 -51.65,245.25"/>
    </edge>
    <edge id=":0/2_2" function="internal">
        <lane id=":0/2_2_0" index="0" speed="13.89" length="3.44" shape="-51.65,254.75 -51.25,251.95 -50.93,251.42"/>
    </edge>
    <edge id=":0/2_14" function="internal">
        <lane id=":0/2_14_0" index="0" speed="13.89" length="6.88" shape="-50.93,251.42 -50.05,249.95 -48.05,248.75 -45.25,248.35"/>
    </edge>
    <edge id=":0/2_3" function="internal">
        <lane id=":0/2_3_0" index="0" speed="13.89" length="5.00" shape="-45.25,251.65 -46.61,251.84 -47.57,252.43 -48.16,253.39 -48.35,254.75"/>
    </edge>
    <edge id=":0/2_4" function="internal">
        <lane id=":0/2_4_0" index="0" speed="13.89" length="9.50" shape="-45.25,251.65 -54.75,251.65"/>
    </edge>
    <edge id=":0/2_5" function="internal">
        <lane id=":0/2_5_0" index="0" speed="13.90" length="10.32" shape="-45.25,251.65 -48.05,251.25 -50.05,250.05 -51.25,248.05 -51.65,245.25"/>
    </edge>
    <edge id=":0/2_6" function="internal">
        <lane id=":0/2_6_0" index="0" speed="13.90" length="2.69" shape="-45.25,251.65 -46.49,250.82 -46.90,250.00 -46.77,249.75"/>
    </edge>
    <edge id=":0/2_15" function="internal">
        <lane id=":0/2_15_0" index="0" speed="13.90" length="2.13" shape="-46.77,249.75 -46.49,249.18 -45.25,248.35"/>
    </edge>
    <edge id=":0/2_7" function="internal">
        <lane id=":0/2_7_0" index="0" speed="13.90" length="5.00" shape="-48.35,245.25 -48.16,246.61 -47.58,247.58 -46.61,248.16 -45.25,248.35"/>
    </edge>
    <edge id=":0/2_8" function="internal">
        <lane id=":0/2_8_0" index="0" speed="13.89" length="9.50" shape="-48.35,245.25 -48.35,254.75"/>
    </edge>
    <edge id=":0/2_9" function="internal">
        <lane id=":0/2_9_0" index="0" speed="13.89" length="5.16" shape="-48.35,245.25 -48.75,248.05 -49.95,250.05"/>
    </edge>
    <edge id=":0/2_10" function="internal">
        <lane id=":0/2_10_0" index="0" speed="13.90" length="4.82" shape="-48.35,245.25 -49.18,246.49 -50.00,246.90 -50.83,246.49 -51.65,245.25"/>
    </edge>
    <edge id=":0/2_16" function="internal">
        <lane id=":0/2_16_0" index="0" speed="13.89" length="5.16" shape="-49.95,250.05 -51.95,251.25 -54.75,251.65"/>
    </edge>
    <edge id=":0/2_11" function="internal">
        <lane id=":0/2_11_0" index="0" speed="13.89" length="5.00" shape="-54.75,248.35 -53.39,248.16 -52.43,247.57 -51.84,246.61 -51.65,245.25"/>
    </edge>
    <edge id=":0/2_12" function="internal">
        <lane id=":0/2_12_0" index="0" speed="13.89" length="9.50" shape="-54.75,248.35 -45.25,248.35"/>
    </edge>
    <edge id=":0/2_13" function="internal">
        <lane id=":0/2_13_0" index="0" speed="13.89" length="10.32" shape="-54.75,248.35 -51.95,248.75 -49.95,249.95 -48.75,251.95 -48.35,254.75"/>
    </edge>
    <edge id=":1/0_0" function="internal">
        <lane id=":1/0_0_0" index="0" speed="13.90" length="5.00" shape="98.35,-45.25 98.16,-46.61 97.57,-47.57 96.61,-48.16 95.25,-48.35"/>
    </edge>
    <edge id=":1/0_1" function="internal">
        <lane id=":1/0_1_0" index="0" speed="13.89" length="9.50" shape="98.35,-45.25 98.35,-54.75"/>
    </edge>
    <edge id=":1/0_2" function="internal">
        <lane id=":1/0_2_0" index="0" speed="13.90" length="5.28" shape="98.35,-45.25 98.75,-48.05 99.95,-50.05 100.05,-50.11"/>
    </edge>
    <edge id=":1/0_3" function="internal">
        <lane id=":1/0_3_0" index="0" speed="13.90" length="2.41" shape="98.35,-45.25 99.18,-46.49 100.00,-46.90"/>
    </edge>
    <edge id=":1/0_15" function="internal">
        <lane id=":1/0_15_0" index="0" speed="13.90" length="5.04" shape="100.05,-50.11 101.95,-51.25 104.75,-51.65"/>
    </edge>
    <edge id=":1/0_16" function="internal">
        <lane id=":1/0_16_0" index="0" speed="13.90" length="2.41" shape="100.00,-46.90 100.83,-46.49 101.65,-45.25"/>
    </edge>
    <edge id=":1/0_4" function="internal">
        <lane id=":1/0_4_0" index="0" speed="13.90" length="5.00" shape="104.75,-48.35 103.39,-48.16 102.43,-47.58 101.84,-46.61 101.65,-45.25"/>
    </edge>
    <edge id=":1/0_5" function="internal">
        <lane id=":1/0_5_0" index="0" speed="13.90" length="9.50" shape="104.75,-48.35 95.25,-48.35"/>
    </edge>
    <edge id=":1/0_6" function="internal">
        <lane id=":1/0_6_0" index="0" speed="13.89" length="5.28" shape="104.75,-48.35 101.95,-48.75 99.95,-49.95 99.89,-50.05"/>
    </edge>
    <edge id=":1/0_7" function="internal">
        <lane id=":1/0_7_0" index="0" speed="13.90" length="2.41" shape="104.75,-48.35 103.51,-49.18 103.10,-50.00"/>
    </edge>
    <edge id=":1/0_17" function="internal">
        <lane id=":1/0_17_0" index="0" speed="13.89" length="5.04" shape="99.89,-50.05 98.75,-51.95 98.35,-54.75"/>
    </edge>
    <edge id=":1/0_18" function="internal">
        <lane id=":1/0_18_0" index="0" speed="13.90" length="2.41" shape="103.10,-50.00 103.51,-50.83 104.75,-51.65"/>
    </edge>
    <edge id=":1/0_8" function="internal">
        <lane id=":1/0_8_0" index="0" speed="13.89" length="5.00" shape="101.65,-54.75 101.84,-53.39 102.43,-52.43 103.39,-51.84 104.75,-51.65"/>
    </edge>
    <edge id=":1/0_9" function="internal">
        <lane id=":1/0_9_0" index="0" speed="13.89" length="9.50" shape="101.65,-54.75 101.65,-45.25"/>
    </edge>
    <edge id=":1/0_10" function="internal">
        <lane id=":1/0_10_0" index="0" speed="13.89" length="5.28" shape="101.65,-54.75 101.25,-51.95 100.05,-49.95 99.95,-49.89"/>
    </edge>
    <edge id=":1/0_19" function="internal">
        <lane id=":1/0_19_0" index="0" speed="13.89" length="5.04" shape="99.95,-49.89 98.05,-48.75 95.25,-48.35"/>
    </edge>
    <edge id=":1/0_11" function="internal">
        <lane id=":1/0_11_0" index="0" speed="13.89" length="5.00" shape="95.25,-51.65 96.61,-51.84 97.57,-52.42 98.16,-53.39 98.35,-54.75"/>
    </edge>
    <edge id=":1/0_12" function="internal">
        <lane id=":1/0_12_0" index="0" speed="13.90" length="9.50" shape="95.25,-51.65 104.75,-51.65"/>
    </edge>
    <edge id=":1/0_13" function="internal">
        <lane id=":1/0_13_0" index="0" speed="13.90" length="5.28" shape="95.25,-51.65 98.05,-51.25 100.05,-50.05 100.11,-49.95"/>
    </edge>
    <edge id=":1/0_14" function="internal">
        <lane id=":1/0_14_0" index="0" speed="13.90" length="2.41" shape="95.25,-51.65 96.49,-50.82 96.90,-50.00"/>
    </edge>
    <edge id=":1/0_20" function="internal">
        <lane id=":1/0_20_0" index="0" speed="13.90" length="5.04" shape="100.11,-49.95 101.25,-48.05 101.65,-45.25"/>
    </edge>
    <edge id=":1/0_21" function="internal">
        <lane id=":1/0_21_0" index="0" speed="13.90" length="2.41" shape="96.90,-50.00 96.49,-49.17 95.25,-48.35"/>
    </edge>
    <edge id=":1/1_0" function="internal">
        <lane id=":1/1_0_0" index="0" speed="13.90" length="5.00" shape="98.35,104.75 98.16,103.39 97.57,102.43 96.61,101.84 95.25,101.65"/>
    </edge>
    <edge id=":1/1_1" function="internal">
        <lane id=":1/1_1_0" index="0" speed="13.90" length="9.50" shape="98.35,104.75 98.35,95.25"/>
    </edge>
    <edge id=":1/1_2" function="internal">
        <lane id=":1/1_2_0" index="0" speed="13.90" length="5.28" shape="98.35,104.75 98.75,101.95 99.95,99.95 100.05,99.89"/>
    </edge>
    <edge id=":1/1_3" function="internal">
        <lane id=":1/1_3_0" index="0" speed="13.90" length="2.41" shape="98.35,104.75 99.18,103.51 100.00,103.10"/>
    </edge>
    <edge id=":1/1_16" function="internal">
        <lane id=":1/1_16_0" index="0" speed="13.90" length="5.04" shape="100.05,99.89 101.95,98.75 104.75,98.35"/>
    </edge>
    <edge id=":1/1_17" function="internal">
        <lane id=":1/1_17_0" index="0" speed="13.90" length="2.41" shape="100.00,103.10 100.83,103.51 101.65,104.75"/>
    </edge>
    <edge id=":1/1_4" function="internal">
        <lane id=":1/1_4_0" index="0" speed="13.90" length="5.00" shape="104.75,101.65 103.39,101.84 102.43,102.43 101.84,103.39 101.65,104.75"/>
    </edge>
    <edge id=":1/1_5" function="internal">
        <lane id=":1/1_5_0" index="0" speed="13.90" length="9.50" shape="104.75,101.65 95.25,101.65"/>
    </edge>
    <edge id=":1/1_6" function="internal">
        <lane id=":1/1_6_0" index="0" speed="13.90" length="5.28" shape="104.75,101.65 101.95,101.25 99.95,100.05 99.89,99.95"/>
    </edge>
    <edge id=":1/1_7" function="internal">
        <lane id=":1/1_7_0" index="0" speed="13.90" length="2.41" shape="104.75,101.65 103.51,100.82 103.10,100.00"/>
    </edge>
    <edge id=":1/1_18" function="internal">
        <lane id=":1/1_18_0" index="0" speed="13.90" length="5.04" shape="99.89,99.95 98.75,98.05 98.35,95.25"/>
    </edge>
    <edge id=":1/1_19" function="internal">
        <lane id=":1/1_19_0" index="0" speed="13.90" length="2.41" shape="103.10,100.00 103.51,99.17 104.75,98.35"/>
    </edge>
    <edge id=":1/1_8" function="internal">
        <lane id=":1/1_8_0" index="0" speed="13.90" length="5.00" shape="101.65,95.25 101.84,96.61 102.43,97.57 103.39,98.16 104.75,98.35"/>
    </edge>
    <edge id=":1/1_9" function="internal">
        <lane id=":1/1_9_0" index="0" speed="13.90" length="9.50" shape="101.65,95.25 101.65,104.75"/>
    </edge>
    <edge id=":1/1_10" function="internal">
        <lane id=":1/1_10_0" index="0" speed="13.90" length="5.28" shape="101.65,95.25 101.25,98.05 100.05,100.05 99.95,100.11"/>
    </edge>
    <edge id=":1/1_11" function="internal">
        <lane id=":1/1_11_0" index="0" speed="13.90" length="2.41" shape="101.65,95.25 100.82,96.49 100.00,96.90"/>
    </edge>
    <edge id=":1/1_20" function="internal">
        <lane id=":1/1_20_0" index="0" speed="13.90" length="5.04" shape="99.95,100.11 98.05,101.25 95.25,101.65"/>
    </edge>
    <edge id=":1/1_21" function="internal">
        <lane id=":1/1_21_0" index="0" speed="13.90" length="2.41" shape="100.00,96.90 99.17,96.49 98.35,95.25"/>
    </edge>
    <edge id=":1/1_12" function="internal">
        <lane id=":1/1_12_0" index="0" speed="13.90" length="5.00" shape="95.25,98.35 96.61,98.16 97.57,97.57 98.16,96.61 98.35,95.25"/>
    </edge>
    <edge id=":1/1_13" function="internal">
        <lane id=":1/1_13_0" index="0" speed="13.90" length="9.50" shape="95.25,98.35 104.75,98.35"/>
    </edge>
    <edge id=":1/1_14" function="internal">
        <lane id=":1/1_14_0" index="0" speed="13.90" length="5.28" shape="95.25,98.35 98.05,98.75 100.05,99.95 100.11,100.05"/>
    </edge>
    <edge id=":1/1_15" function="internal">
        <lane id=":1/1_15_0" index="0" speed="13.90" length="2.41" shape="95.25,98.35 96.49,99.18 96.90,100.00"/>
    </edge>
    <edge id=":1/1_22" function="internal">
        <lane id=":1/1_22_0" index="0" speed="13.90" length="5.04" shape="100.11,100.05 101.25,101.95 101.65,104.75"/>
    </edge>
    <edge id=":1/1_23" function="internal">
        <lane id=":1/1_23_0" index="0" speed="13.90" length="2.41" shape="96.90,100.00 96.49,100.83 95.25,101.65"/>
    </edge>
    <edge id=":1/2_0" function="internal">
        <lane id=":1/2_0_0" index="0" speed="13.89" length="5.00" shape="98.35,254.75 98.16,253.39 97.57,252.42 96.61,251.84 95.25,251.65"/>
    </edge>
    <edge id=":1/2_1" function="internal">
        <lane id=":1/2_1_0" index="0" speed="13.89" length="9.50" shape="98.35,254.75 98.35,245.25"/>
    </edge>
    <edge id=":1/2_2" function="internal">
        <lane id=":1/2_2_0" index="0" speed="13.89" length="5.28" shape="98.35,254.75 98.75,251.95 99.95,249.95 100.05,249.89"/>
    </edge>
    <edge id=":1/2_15" function="internal">
        <lane id=":1/2_15_0" index="0" speed="13.89" length="5.04" shape="100.05,249.89 101.95,248.75 104.75,248.35"/>
    </edge>
    <edge id=":1/2_3" function="internal">
        <lane id=":1/2_3_0" index="0" speed="13.89" length="5.00" shape="104.75,251.65 103.39,251.84 102.43,252.43 101.84,253.39 101.65,254.75"/>
    </edge>
    <edge id=":1/2_4" function="internal">
        <lane id=":1/2_4_0" index="0" speed="13.90" length="9.50" shape="104.75,251.65 95.25,251.65"/>
    </edge>
    <edge id=":1/2_5" function="internal">
        <lane id=":1/2_5_0" index="0" speed="13.90" length="5.28" shape="104.75,251.65 101.95,251.25 99.95,250.05 99.89,249.95"/>
    </edge>
    <edge id=":1/2_6" function="internal">
        <lane id=":1/2_6_0" index="0" speed="13.90" length="2.41" shape="104.75,251.65 103.51,250.82 103.10,250.00"/>
    </edge>
    <edge id=":1/2_16" function="internal">
        <lane id=":1/2_16_0" index="0" speed="13.90" length="5.04" shape="99.89,249.95 98.75,248.05 98.35,245.25"/>
    </edge>
    <edge id=":1/2_17" function="internal">
        <lane id=":1/2_17_0" index="0" speed="13.90" length="2.41" shape="103.10,250.00 103.51,249.18 104.75,248.35"/>
    </edge>
    <edge id=":1/2_7" function="internal">
        <lane id=":1/2_7_0" index="0" speed="13.90" length="5.00" shape="101.65,245.25 101.84,246.61 102.43,247.58 103.39,248.16 104.75,248.35"/>
    </edge>
    <edge id=":1/2_8" function="internal">
        <lane id=":1/2_8_0" index="0" speed="13.89" length="9.50" shape="101.65,245.25 101.65,254.75"/>
    </edge>
    <edge id=":1/2_9" function="internal">
        <lane id=":1/2_9_0" index="0" speed="13.90" length="5.28" shape="101.65,245.25 101.25,248.05 100.05,250.05 99.95,250.11"/>
    </edge>
    <edge id=":1/2_10" function="internal">
        <lane id=":1/2_10_0" index="0" speed="13.90" length="2.41" shape="101.65,245.25 100.82,246.49 100.00,246.90"/>
    </edge>
    <edge id=":1/2_18" function="internal">
        <lane id=":1/2_18_0" index="0" speed="13.90" length="5.04" shape="99.95,250.11 98.05,251.25 95.25,251.65"/>
    </edge>
    <edge id=":1/2_19" function="internal">
        <lane id=":1/2_19_0" index="0" speed="13.90" length="2.41" shape="100.00,246.90 99.17,246.49 98.35,245.25"/>
    </edge>
    <edge id=":1/2_11" function="internal">
        <lane id=":1/2_11_0" index="0" speed="13.90" length="5.00" shape="95.25,248.35 96.61,248.16 97.57,247.57 98.16,246.61 98.35,245.25"/>
    </edge>
    <edge id=":1/2_12" function="internal">
        <lane id=":1/2_12_0" index="0" speed="13.90" length="9.50" shape="95.25,248.35 104.75,248.35"/>
    </edge>
    <edge id=":1/2_13" function="internal">
        <lane id=":1/2_13_0" index="0" speed="13.89" length="5.28" shape="95.25,248.35 98.05,248.75 100.05,249.95 100.11,250.05"/>
    </edge>
    <edge id=":1/2_14" function="internal">
        <lane id=":1/2_14_0" index="0" speed="13.90" length="2.41" shape="95.25,248.35 96.49,249.18 96.90,250.00"/>
    </edge>
    <edge id=":1/2_20" function="internal">
        <lane id=":1/2_20_0" index="0" speed="13.89" length="5.04" shape="100.11,250.05 101.25,251.95 101.65,254.75"/>
    </edge>
    <edge id=":1/2_21" function="internal">
        <lane id=":1/2_21_0" index="0" speed="13.90" length="2.41" shape="96.90,250.00 96.49,250.82 95.25,251.65"/>
    </edge>
    <edge id=":2/0_0" function="internal">
        <lane id=":2/0_0_0" index="0" speed="13.90" length="5.00" shape="248.35,-45.25 248.16,-46.61 247.57,-47.57 246.61,-48.16 245.25,-48.35"/>
    </edge>
    <edge id=":2/0_1" function="internal">
        <lane id=":2/0_1_0" index="0" speed="13.89" length="9.50" shape="248.35,-45.25 248.35,-54.75"/>
    </edge>
    <edge id=":2/0_2" function="internal">
        <lane id=":2/0_2_0" index="0" speed="13.89" length="5.16" shape="248.35,-45.25 248.75,-48.05 249.95,-50.05"/>
    </edge>
    <edge id=":2/0_3" function="internal">
        <lane id=":2/0_3_0" index="0" speed="13.90" length="4.82" shape="248.35,-45.25 249.18,-46.49 250.00,-46.90 250.82,-46.49 251.65,-45.25"/>
    </edge>
    <edge id=":2/0_14" function="internal">
        <lane id=":2/0_14_0" index="0" speed="13.89" length="5.16" shape="249.95,-50.05 251.95,-51.25 254.75,-51.65"/>
    </edge>
    <edge id=":2/0_4" function="internal">
        <lane id=":2/0_4_0" index="0" speed="13.89" length="5.00" shape="254.75,-48.35 253.39,-48.16 252.42,-47.58 251.84,-46.61 251.65,-45.25"/>
    </edge>
    <edge id=":2/0_5" function="internal">
        <lane id=":2/0_5_0" index="0" speed="13.89" length="9.50" shape="254.75,-48.35 245.25,-48.35"/>
    </edge>
    <edge id=":2/0_6" function="internal">
        <lane id=":2/0_6_0" index="0" speed="13.89" length="10.32" shape="254.75,-48.35 251.95,-48.75 249.95,-49.95 248.75,-51.95 248.35,-54.75"/>
    </edge>
    <edge id=":2/0_7" function="internal">
        <lane id=":2/0_7_0" index="0" speed="13.89" length="5.00" shape="251.65,-54.75 251.84,-53.39 252.43,-52.43 253.39,-51.84 254.75,-51.65"/>
    </edge>
    <edge id=":2/0_8" function="internal">
        <lane id=":2/0_8_0" index="0" speed="13.89" length="9.50" shape="251.65,-54.75 251.65,-45.25"/>
    </edge>
    <edge id=":2/0_9" function="internal">
        <lane id=":2/0_9_0" index="0" speed="13.89" length="3.44" shape="251.65,-54.75 251.25,-51.95 250.93,-51.42"/>
    </edge>
    <edge id=":2/0_15" function="internal">
        <lane id=":2/0_15_0" index="0" speed="13.89" length="6.88" shape="250.93,-51.42 250.05,-49.95 248.05,-48.75 245.25,-48.35"/>
    </edge>
    <edge id=":2/0_10" function="internal">
        <lane id=":2/0_10_0" index="0" speed="13.89" length="5.00" shape="245.25,-51.65 246.61,-51.84 247.57,-52.42 248.16,-53.39 248.35,-54.75"/>
    </edge>
    <edge id=":2/0_11" function="internal">
        <lane id=":2/0_11_0" index="0" speed="13.89" length="9.50" shape="245.25,-51.65 254.75,-51.65"/>
    </edge>
    <edge id=":2/0_12" function="internal">
        <lane id=":2/0_12_0" index="0" speed="13.90" length="10.32" shape="245.25,-51.65 248.05,-51.25 250.05,-50.05 251.25,-48.05 251.65,-45.25"/>
    </edge>
    <edge id=":2/0_13" function="internal">
        <lane id=":2/0_13_0" index="0" speed="13.90" length="2.69" shape="245.25,-51.65 246.49,-50.82 246.90,-50.00 246.77,-49.75"/>
    </edge>
    <edge id=":2/0_16" function="internal">
        <lane id=":2/0_16_0" index="0" speed="13.90" length="2.13" shape="246.77,-49.75 246.49,-49.17 245.25,-48.35"/>
    </edge>
    <edge id=":2/1_0" function="internal">
        <lane id=":2/1_0_0" index="0" speed="13.90" length="5.00" shape="248.35,104.75 248.16,103.39 247.57,102.43 246.61,101.84 245.25,101.65"/>
    </edge>
    <edge id=":2/1_1" function="internal">
        <lane id=":2/1_1_0" index="0" speed="13.90" length="9.50" shape="248.35,104.75 248.35,95.25"/>
    </edge>
    <edge id=":2/1_2" function="internal">
        <lane id=":2/1_2_0" index="0" speed="13.89" length="5.28" shape="248.35,104.75 248.75,101.95 249.95,99.95 250.05,99.89"/>
    </edge>
    <edge id=":2/1_3" function="internal">
        <lane id=":2/1_3_0" index="0" speed="13.90" length="2.41" shape="248.35,104.75 249.18,103.51 250.00,103.10"/>
    </edge>
    <edge id=":2/1_15" function="internal">
        <lane id=":2/1_15_0" index="0" speed="13.89" length="5.04" shape="250.05,99.89 251.95,98.75 254.75,98.35"/>
    </edge>
    <edge id=":2/1_16" function="internal">
        <lane id=":2/1_16_0" index="0" speed="13.90" length="2.41" shape="250.00,103.10 250.82,103.51 251.65,104.75"/>
    </edge>
    <edge id=":2/1_4" function="internal">
        <lane id=":2/1_4_0" index="0" speed="13.89" length="5.00" shape="254.75,101.65 253.39,101.84 252.42,102.43 251.84,103.39 251.65,104.75"/>
    </edge>
    <edge id=":2/1_5" function="internal">
        <lane id=":2/1_5_0" index="0" speed="13.89" length="9.50" shape="254.75,101.65 245.25,101.65"/>
    </edge>
    <edge id=":2/1_6" function="internal">
        <lane id=":2/1_6_0" index="0" speed="13.89" length="5.28" shape="254.75,101.65 251.95,101.25 249.95,100.05 249.89,99.95"/>
    </edge>
    <edge id=":2/1_17" function="internal">
        <lane id=":2/1_17_0" index="0" speed="13.89" length="5.04" shape="249.89,99.95 248.75,98.05 248.35,95.25"/>
    </edge>
    <edge id=":2/1_7" function="internal">
        <lane id=":2/1_7_0" index="0" speed="13.89" length="5.00" shape="251.65,95.25 251.84,96.61 252.43,97.57 253.39,98.16 254.75,98.35"/>
    </edge>
    <edge id=":2/1_8" function="internal">
        <lane id=":2/1_8_0" index="0" speed="13.90" length="9.50" shape="251.65,95.25 251.65,104.75"/>
    </edge>
    <edge id=":2/1_9" function="internal">
        <lane id=":2/1_9_0" index="0" speed="13.90" length="5.28" shape="251.65,95.25 251.25,98.05 250.05,100.05 249.95,100.11"/>
    </edge>
    <edge id=":2/1_10" function="internal">
        <lane id=":2/1_10_0" index="0" speed="13.90" length="2.41" shape="251.65,95.25 250.82,96.49 250.00,96.90"/>
    </edge>
    <edge id=":2/1_18" function="internal">
        <lane id=":2/1_18_0" index="0" speed="13.90" length="5.04" shape="249.95,100.11 248.05,101.25 245.25,101.65"/>
    </edge>
    <edge id=":2/1_19" function="internal">
        <lane id=":2/1_19_0" index="0" speed="13.90" length="2.41" shape="250.00,96.90 249.18,96.49 248.35,95.25"/>
    </edge>
    <edge id=":2/1_11" function="internal">
        <lane id=":2/1_11_0" index="0" speed="13.90" length="5.00" shape="245.25,98.35 246.61,98.16 247.58,97.57 248.16,96.61 248.35,95.25"/>
    </edge>
    <edge id=":2/1_12" function="internal">
        <lane id=":2/1_12_0" index="0" speed="13.89" length="9.50" shape="245.25,98.35 254.75,98.35"/>
    </edge>
    <edge id=":2/1_13" function="internal">
        <lane id=":2/1_13_0" index="0" speed="13.90" length="5.28" shape="245.25,98.35 248.05,98.75 250.05,99.95 250.11,100.05"/>
    </edge>
    <edge id=":2/1_14" function="internal">