<?xml version="1.0" encoding="UTF-8"?>

<!-- generated on Sun Oct 14 18:19:07 2018 by SUMO duarouter Version 0.30.0
<?xml version="1.0" encoding="UTF-8"?>

<configuration xmlns:xsi="http://www.w3.org/2001/XMLSchema-instance" xsi:noNamespaceSchemaLocation="http://sumo.dlr.de/xsd/duarouterConfiguration.xsd">

    <input>
        <net-file value="manhattan/manhattan.net.xml"/>
        <route-files value="trips.trips.xml"/>
    </input>

    <output>
        <output-file value="manhattan/route-trip-new/manhattan-1.1-0.rou.xml"/>
    </output>

    <processing>
        <ignore-errors value="true"/>
    </processing>

    <time>
        <begin value="0.0"/>
        <end value="1800.0"/>
    </time>

    <report>
        <no-warnings value="true"/>
        <no-step-log value="true"/>
    </report>

</configuration>
-->

<routes xmlns:xsi="http://www.w3.org/2001/XMLSchema-instance" xsi:noNamespaceSchemaLocation="http://sumo.dlr.de/xsd/routes_file.xsd">
    <vehicle id="0" depart="0.00">
        <route edges="-gneE11 2/0to1/0 1/0to0/0 gneE14"/>
    </vehicle>
    <vehicle id="1" depart="1.10">
        <route edges="-gneE14 0/0to0/1 0/1to0/2 0/2to1/2 1/2to2/2 gneE8"/>
    </vehicle>
    <vehicle id="2" depart="2.20">
        <route edges="-gneE5 0/2to1/2 1/2to2/2 gneE8"/>
    </vehicle>
    <vehicle id="3" depart="3.30">
        <route edges="2/2to1/2 1/2to1/1 1/1to0/1 -gneE23"/>
    </vehicle>
    <vehicle id="4" depart="4.40">
        <route edges="2/0to1/0 1/0to1/1 1/1to1/2"/>
    </vehicle>
    <vehicle id="5" depart="5.50">
        <route edges="gneE23 0/1to0/2 gneE7"/>
    </vehicle>
    <vehicle id="6" depart="6.60">
        <route edges="gneE19 1/2to2/2 gneE9"/>
    </vehicle>
    <vehicle id="7" depart="7.70">
        <route edges="-gneE11 2/0to2/1 2/1to2/2 gneE8"/>
    </vehicle>
    <vehicle id="8" depart="8.80">
        <route edges="gneE20 2/1to1/1 1/1to1/0 -gneE22"/>
    </vehicle>
    <vehicle id="9" depart="9.90">
        <route edges="gneE19 1/2to1/1 1/1to1/0 1/0to0/0"/>
    </vehicle>
    <vehicle id="10" depart="11.00">
        <route edges="1/2to1/1 1/1to0/1 0/1to0/0 gneE14"/>
    </vehicle>
    <vehicle id="11" depart="12.10">
        <route edges="1/1to0/1 0/1to0/0 0/0to1/0 -gneE22"/>
    </vehicle>
    <vehicle id="12" depart="13.20">
        <route edges="-gneE7 0/2to0/1 -gneE23"/>
    </vehicle>
    <vehicle id="13" depart="14.30">
        <route edges="gneE19 1/2to1/1 1/1to1/0 1/0to2/0 gneE11"/>
    </vehicle>
    <vehicle id="14" depart="15.40">
        <route edges="gneE19 1/2to1/1 1/1to0/1 -gneE23"/>
    </vehicle>
    <vehicle id="15" depart="16.50">
        <route edges="gneE22 1/0to1/1 1/1to1/2 1/2to2/2 gneE8"/>
    </vehicle>
    <vehicle id="16" depart="17.60">
        <route edges="-gneE11 2/0to1/0 1/0to0/0 0/0to0/1 0/1to0/2 gneE7"/>
    </vehicle>
    <vehicle id="17" depart="18.70">
        <route edges="-gneE12 2/0to2/1 2/1to2/2 2/2to1/2"/>
    </vehicle>
    <vehicle id="18" depart="19.80">
        <route edges="0/0to0/1 0/1to1/1 1/1to2/1 -gneE20"/>
    </vehicle>
    <vehicle id="19" depart="20.90">
        <route edges="-gneE14 0/0to1/0 1/0to2/0 gneE11"/>
    </vehicle>
    <vehicle id="20" depart="22.00">
        <route edges="-gneE11 2/0to2/1 2/1to2/2 2/2to1/2"/>
    </vehicle>
    <vehicle id="21" depart="23.10">
        <route edges="-gneE12 2/0to1/0 1/0to1/1 1/1to1/0"/>
    </vehicle>
    <vehicle id="22" depart="24.20">
        <route edges="-gneE14 0/0to1/0 1/0to1/1 1/1to2/1 -gneE20"/>
    </vehicle>
    <vehicle id="23" depart="25.30">
        <route edges="-gneE11 2/0to2/1 2/1to2/2 gneE9"/>
    </vehicle>
    <vehicle id="24" depart="26.40">
        <route edges="gneE19 1/2to1/1 1/1to0/1 0/1to0/0 gneE14"/>
    </vehicle>
    <vehicle id="25" depart="27.50">
        <route edges="gneE22 1/0to1/1 1/1to1/2 1/2to1/1"/>
    </vehicle>
    <vehicle id="26" depart="28.60">
        <route edges="-gneE9 2/2to1/2 1/2to0/2 gneE5"/>
    </vehicle>
    <vehicle id="27" depart="29.70">
        <route edges="1/1to2/1 -gneE20"/>
    </vehicle>
    <vehicle id="28" depart="30.80">
        <route edges="-gneE8 2/2to1/2 1/2to0/2 gneE7"/>
    </vehicle>
    <vehicle id="29" depart="31.90">
        <route edges="gneE20 2/1to2/0 gneE11"/>
    </vehicle>
    <vehicle id="30" depart="33.00">
        <route edges="-gneE14 0/0to0/1 -gneE23"/>
    </vehicle>
    <vehicle id="31" depart="34.10">
        <route edges="gneE20 2/1to1/1 1/1to0/1 0/1to0/0 gneE14"/>
    </vehicle>
    <vehicle id="32" depart="35.20">
        <route edges="-gneE9 2/2to2/1 2/1to2/0 gneE11"/>
    </vehicle>
    <vehicle id="33" depart="36.30">
        <route edges="-gneE14 0/0to0/1 0/1to0/2"/>
    </vehicle>
    <vehicle id="34" depart="37.40">
        <route edges="-gneE9 2/2to1/2 1/2to0/2 gneE5"/>
    </vehicle>
    <vehicle id="35" depart="38.50">
        <route edges="gneE23 0/1to0/0 0/0to1/0 1/0to2/0 gneE12"/>
    </vehicle>
    <vehicle id="36" depart="39.60">
        <route edges="-gneE7 0/2to0/1 0/1to0/0 0/0to1/0 1/0to2/0 2/0to2/1"/>
    </vehicle>
    <vehicle id="37" depart="40.70">
        <route edges="-gneE8 2/2to2/1 2/1to2/0 gneE12"/>
    </vehicle>
    <vehicle id="38" depart="41.80">
        <route edges="-gneE14 0/0to1/0 1/0to2/0 gneE12"/>
    </vehicle>
    <vehicle id="39" depart="42.90">
        <route edges="2/1to1/1 1/1to1/2"/>
    </vehicle>
    <vehicle id="40" depart="44.00">
        <route edges="-gneE7 0/2to0/1 0/1to0/0 gneE13"/>
    </vehicle>
    <vehicle id="41" depart="45.10">
        <route edges="gneE22 1/0to0/0 0/0to0/1 0/1to0/2 gneE7"/>
    </vehicle>
    <vehicle id="42" depart="46.20">
        <route edges="gneE20 2/1to1/1 1/1to1/0"/>
    </vehicle>
    <vehicle id="43" depart="47.30">
        <route edges="-gneE5 0/2to1/2 1/2to2/2 gneE8"/>
    </vehicle>
    <vehicle id="44" depart="48.40">
        <route edges="gneE23 0/1to0/0 0/0to1/0 -gneE22"/>
    </vehicle>
    <vehicle id="45" depart="49.50">
        <route edges="-gneE13 0/0to1/0 1/0to1/1 1/1to2/1"/>
    </vehicle>
    <vehicle id="46" depart="50.60">
        <route edges="1/1to1/2 1/2to1/1 1/1to0/1 0/1to0/0 gneE13"/>
    </vehicle>
    <vehicle id="47" depart="51.70">
        <route edges="gneE23 0/1to1/1 1/1to2/1"/>
    </vehicle>
    <vehicle id="48" depart="52.80">
        <route edges="-gneE5 0/2to1/2 1/2to2/2 gneE8"/>
    </vehicle>
    <vehicle id="49" depart="53.90">
        <route edges="-gneE11 2/0to1/0 1/0to1/1 1/1to1/2"/>
    </vehicle>
    <vehicle id="50" depart="55.00">
        <route edges="-gneE11 2/0to1/0 1/0to1/1 1/1to1/2 -gneE19"/>
    </vehicle>
    <vehicle id="51" depart="56.10">
        <route edges="-gneE8 2/2to1/2 1/2to0/2 gneE5"/>
    </vehicle>
    <vehicle id="52" depart="57.20">
        <route edges="-gneE14 0/0to0/1 0/1to0/2 gneE7"/>
    </vehicle>
    <vehicle id="53" depart="58.30">
        <route edges="-gneE11 2/0to2/1 2/1to2/2 gneE8"/>
    </vehicle>
    <vehicle id="54" depart="59.40">
        <route edges="-gneE14 0/0to1/0 1/0to1/1 1/1to0/1"/>
    </vehicle>
    <vehicle id="55" depart="60.50">
        <route edges="-gneE11 2/0to1/0 1/0to0/0 0/0to0/1 -gneE23"/>
    </vehicle>
    <vehicle id="56" depart="61.60">
        <route edges="gneE22 1/0to1/1 1/1to2/1"/>
    </vehicle>
    <vehicle id="57" depart="62.70">
        <route edges="-gneE5 0/2to0/1 0/1to0/0 0/0to1/0 1/0to2/0 gneE12"/>
    </vehicle>
    <vehicle id="58" depart="63.80">
        <route edges="-gneE7 0/2to0/1 0/1to0/0 0/0to1/0 -gneE22"/>
    </vehicle>
    <vehicle id="59" depart="64.90">
        <route edges="gneE20 2/1to1/1 1/1to0/1 0/1to0/2 gneE5"/>
    </vehicle>
    <vehicle id="60" depart="66.00">
        <route edges="-gneE7 0/2to1/2 1/2to1/1 1/1to2/1 2/1to2/2"/>
    </vehicle>
    <vehicle id="61" depart="67.10">
        <route edges="-gneE5 0/2to1/2 -gneE19"/>
    </vehicle>
    <vehicle id="62" depart="68.20">
        <route edges="-gneE9 2/2to2/1 2/1to2/0 gneE11"/>
    </vehicle>
    <vehicle id="63" depart="69.30">
        <route edges="-gneE14 0/0to0/1 0/1to0/2 0/2to1/2 1/2to2/2 gneE8"/>
    </vehicle>
    <vehicle id="64" depart="70.40">
        <route edges="0/0to1/0 1/0to1/1 1/1to1/2 1/2to2/2 gneE8"/>
    </vehicle>
    <vehicle id="65" depart="71.50">
        <route edges="-gneE14 0/0to0/1 0/1to0/2 0/2to1/2 1/2to0/2"/>
    </vehicle>
    <vehicle id="66" depart="72.60">
        <route edges="-gneE13 0/0to1/0 1/0to2/0 gneE12"/>
    </vehicle>
    <vehicle id="67" depart="73.70">
        <route edges="0/1to1/1 1/1to2/1 2/1to2/0"/>
    </vehicle>
    <vehicle id="68" depart="74.80">
        <route edges="-gneE9 2/2to1/2 1/2to1/1 1/1to0/1 0/1to0/0 gneE13"/>
    </vehicle>
    <vehicle id="69" depart="75.90">
        <route edges="2/2to1/2 1/2to1/1 1/1to0/1 0/1to0/0 gneE14"/>
    </vehicle>
    <vehicle id="70" depart="77.00">
        <route edges="gneE22 1/0to1/1 1/1to1/2 1/2to2/2 gneE8"/>
    </vehicle>
    <vehicle id="71" depart="78.10">
        <route edges="-gneE14 0/0to0/1 0/1to0/2 0/2to1/2 1/2to2/2 gneE8"/>
    </vehicle>
    <vehicle id="72" depart="79.20">
        <route edges="2/1to2/0 gneE11"/>
    </vehicle>
    <vehicle id="73" depart="80.30">
        <route edges="gneE23 0/1to0/2 0/2to1/2 1/2to2/2 gneE8"/>
    </vehicle>
    <vehicle id="74" depart="81.40">
        <route edges="-gneE13 0/0to0/1 0/1to0/2 0/2to1/2 1/2to2/2 2/2to1/2"/>
    </vehicle>
    <vehicle id="75" depart="82.50">
        <route edges="-gneE13 0/0to1/0 -gneE22"/>
    </vehicle>
    <vehicle id="76" depart="83.60">
        <route edges="-gneE9 2/2to2/1 2/1to2/0 gneE11"/>
    </vehicle>
    <vehicle id="77" depart="84.70">
        <route edges="2/1to2/0 2/0to1/0 -gneE22"/>
    </vehicle>
    <vehicle id="78" depart="85.80">
        <route edges="-gneE11 2/0to1/0 1/0to1/1 1/1to1/2 1/2to2/2"/>
    </vehicle>
    <vehicle id="79" depart="86.90">
        <route edges="-gneE13 0/0to0/1 0/1to0/2 0/2to1/2 1/2to2/2 gneE8"/>
    </vehicle>
    <vehicle id="80" depart="88.00">
        <route edges="gneE20 2/1to1/1 1/1to1/0 -gneE22"/>
    </vehicle>
    <vehicle id="81" depart="89.10">
        <route edges="0/1to1/1 1/1to2/1 -gneE20"/>
    </vehicle>
    <vehicle id="82" depart="90.20">
        <route edges="-gneE5 0/2to0/1 0/1to0/0 0/0to1/0"/>
    </vehicle>
    <vehicle id="83" depart="91.30">
        <route edges="-gneE8 2/2to2/1 2/1to2/0 gneE11"/>
    </vehicle>
    <vehicle id="84" depart="92.40">
        <route edges="-gneE14 0/0to0/1 0/1to0/2 0/2to1/2 1/2to2/2"/>
    </vehicle>
    <vehicle id="85" depart="93.50">
        <route edges="-gneE12 2/0to2/1 2/1to2/2 gneE8"/>
    </vehicle>
    <vehicle id="86" depart="94.60">
        <route edges="-gneE5 0/2to0/1 0/1to0/0 0/0to1/0 1/0to2/0 gneE12"/>
    </vehicle>
    <vehicle id="87" depart="95.70">
        <route edges="gneE20 2/1to2/0 gneE11"/>
    </vehicle>
    <vehicle id="88" depart="96.80">
        <route edges="-gneE8 2/2to1/2 1/2to0/2 gneE5"/>
    </vehicle>
    <vehicle id="89" depart="97.90">
        <route edges="-gneE11 2/0to1/0 1/0to0/0 0/0to0/1 -gneE23"/>
    </vehicle>
    <vehicle id="90" depart="99.00">
        <route edges="gneE19 1/2to0/2 0/2to0/1"/>
    </vehicle>
    <vehicle id="91" depart="100.10">
        <route edges="gneE23 0/1to0/0 0/0to1/0 -gneE22"/>
    </vehicle>
    <vehicle id="92" depart="101.20">
        <route edges="gneE19 1/2to1/1 1/1to0/1 0/1to0/0 0/0to1/0"/>
    </vehicle>
    <vehicle id="93" depart="102.30">
        <route edges="-gneE13 0/0to1/0 1/0to2/0 gneE11"/>
    </vehicle>
    <vehicle id="94" depart="103.40">
        <route edges="-gneE9 2/2to1/2 1/2to1/1 1/1to0/1 0/1to0/0 gneE14"/>
    </vehicle>
    <vehicle id="95" depart="104.50">
        <route edges="gneE19 1/2to1/1 1/1to2/1"/>
    </vehicle>
    <vehicle id="96" depart="105.60">
        <route edges="-gneE8 2/2to1/2 1/2to1/1 1/1to0/1"/>
    </vehicle>
    <vehicle id="97" depart="106.70">
        <route edges="-gneE7 0/2to0/1 0/1to0/0 0/0to1/0 1/0to2/0 gneE11"/>
    </vehicle>
    <vehicle id="98" depart="107.80">
        <route edges="1/1to0/1 0/1to0/0 gneE13"/>
    </vehicle>
    <vehicle id="99" depart="108.90">
        <route edges="-gneE5 0/2to1/2 -gneE19"/>
    </vehicle>
    <vehicle id="100" depart="110.00">
        <route edges="0/0to0/1 0/1to0/2 gneE7"/>
    </vehicle>
    <vehicle id="101" depart="111.10">
        <route edges="-gneE7 0/2to0/1 0/1to0/0 0/0to1/0 1/0to2/0 gneE12"/>
    </vehicle>
    <vehicle id="102" depart="112.20">
        <route edges="-gneE11 2/0to1/0 1/0to0/0 0/0to0/1 0/1to0/2 gneE7"/>
    </vehicle>
    <vehicle id="103" depart="113.30">
        <route edges="-gneE5 0/2to0/1 0/1to0/0 0/0to1/0 1/0to2/0 gneE12"/>
    </vehicle>
    <vehicle id="104" depart="114.40">
        <route edges="gneE22 1/0to0/0 0/0to0/1 0/1to0/2 gneE5"/>
    </vehicle>
    <vehicle id="105" depart="115.50">
        <route edges="-gneE11 2/0to2/1 2/1to2/2 gneE9"/>
    </vehicle>
    <vehicle id="106" depart="116.60">
        <route edges="gneE22 1/0to0/0 0/0to0/1 0/1to0/2 gneE5"/>
    </vehicle>
    <vehicle id="107" depart="117.70">
        <route edges="-gneE9 2/2to1/2 1/2to1/1 1/1to0/1 -gneE23"/>
    </vehicle>
    <vehicle id="108" depart="118.80">
        <route edges="0/1to0/2 0/2to0/1 0/1to0/0 0/0to1/0 1/0to2/0 gneE12"/>
    </vehicle>
    <vehicle id="109" depart="119.90">
        <route edges="-gneE12 2/0to2/1 2/1to2/2 gneE9"/>
    </vehicle>
    <vehicle id="110" depart="121.00">
        <route edges="-gneE13 0/0to0/1 0/1to0/2 0/2to1/2 1/2to2/2 gneE9"/>
    </vehicle>
    <vehicle id="111" depart="122.10">
        <route edges="gneE20 2/1to1/1 1/1to0/1 0/1to0/2 gneE5"/>
    </vehicle>
    <vehicle id="112" depart="123.20">
        <route edges="-gneE7 0/2to1/2 1/2to2/2"/>
    </vehicle>
    <vehicle id="113" depart="124.30">
        <route edges="1/0to0/0 0/0to1/0 1/0to2/0 gneE12"/>
    </vehicle>
    <vehicle id="114" depart="125.40">
        <route edges="0/1to0/2 0/2to1/2 1/2to1/1 1/1to1/0"/>
    </vehicle>
    <vehicle id="115" depart="126.50">
        <route edges="-gneE14 0/0to1/0 1/0to2/0 gneE12"/>
    </vehicle>
    <vehicle id="116" depart="127.60">
        <route edges="-gneE12 2/0to1/0 1/0to1/1 1/1to0/1"/>
    </vehicle>
    <vehicle id="117" depart="128.70">
        <route edges="2/0to1/0 1/0to0/0 0/0to0/1 0/1to0/2 gneE5"/>
    </vehicle>
    <vehicle id="118" depart="129.80">
        <route edges="gneE23 0/1to0/0 0/0to1/0 1/0to2/0 gneE12"/>
    </vehicle>
    <vehicle id="119" depart="130.90">
        <route edges="0/1to0/2 gneE7"/>
    </vehicle>
    <vehicle id="120" depart="132.00">
        <route edges="-gneE13 0/0to0/1 0/1to0/2 0/2to1/2"/>
    </vehicle>
    <vehicle id="121" depart="133.10">
        <route edges="gneE20 2/1to1/1 1/1to0/1 0/1to1/1"/>
    </vehicle>
    <vehicle id="122" depart="134.20">
        <route edges="-gneE8 2/2to1/2 1/2to1/1 1/1to0/1 -gneE23"/>
    </vehicle>
    <vehicle id="123" depart="135.30">
        <route edges="-gneE5 0/2to1/2 1/2to2/2 gneE8"/>
    </vehicle>
    <vehicle id="124" depart="136.40">
        <route edges="0/1to1/1 1/1to1/0 1/0to2/0 gneE12"/>
    </vehicle>
    <vehicle id="125" depart="137.50">
        <route edges="-gneE12 2/0to2/1 2/1to2/2 gneE9"/>
    </vehicle>
    <vehicle id="126" depart="138.60">
        <route edges="-gneE13 0/0to0/1 0/1to0/2 gneE7"/>
    </vehicle>
    <vehicle id="127" depart="139.70">
        <route edges="gneE23 0/1to0/0 0/0to1/0 -gneE22"/>
    </vehicle>
    <vehicle id="128" depart="140.80">
        <route edges="gneE19 1/2to1/1 1/1to1/0 1/0to2/0 gneE12"/>
    </vehicle>
    <vehicle id="129" depart="141.90">
        <route edges="gneE20 2/1to1/1 1/1to0/1 0/1to0/0 gneE14"/>
    </vehicle>
    <vehicle id="130" depart="143.00">
        <route edges="-gneE5 0/2to1/2 1/2to2/2 gneE8"/>
    </vehicle>
    <vehicle id="131" depart="144.10">
        <route edges="0/2to0/1 0/1to0/0 gneE13"/>
    </vehicle>
    <vehicle id="132" depart="145.20">
        <route edges="-gneE8 2/2to1/2 1/2to1/1 1/1to0/1 0/1to0/0 gneE14"/>
    </vehicle>
    <vehicle id="133" depart="146.30">
        <route edges="-gneE8 2/2to2/1 2/1to2/0 gneE12"/>
    </vehicle>
    <vehicle id="134" depart="147.40">
        <route edges="1/1to1/0 1/0to1/1 1/1to1/2 -gneE19"/>
    </vehicle>
    <vehicle id="135" depart="148.50">
        <route edges="-gneE7 0/2to0/1 0/1to0/0 0/0to1/0 1/0to2/0 gneE12"/>
    </vehicle>
    <vehicle id="136" depart="149.60">
        <route edges="gneE19 1/2to1/1 1/1to1/0 1/0to2/0 gneE12"/>
    </vehicle>
    <vehicle id="137" depart="150.70">
        <route edges="-gneE12 2/0to1/0 1/0to1/1 1/1to1/2 -gneE19"/>
    </vehicle>
    <vehicle id="138" depart="151.80">
        <route edges="gneE22 1/0to0/0 0/0to0/1 0/1to0/2 gneE7"/>
    </vehicle>
    <vehicle id="139" depart="152.90">
        <route edges="gneE23 0/1to0/0 gneE14"/>
    </vehicle>
    <vehicle id="140" depart="154.00">
        <route edges="1/1to1/2 1/2to2/2"/>
    </vehicle>
    <vehicle id="141" depart="155.10">
        <route edges="-gneE12 2/0to2/1 2/1to2/2 gneE9"/>
    </vehicle>
    <vehicle id="142" depart="156.20">
        <route edges="1/1to1/2 1/2to0/2 gneE7"/>
    </vehicle>
    <vehicle id="143" depart="157.30">
        <route edges="gneE22 1/0to0/0 0/0to0/1 0/1to0/2 0/2to0/1"/>
    </vehicle>
    <vehicle id="144" depart="158.40">
        <route edges="-gneE8 2/2to2/1 2/1to2/0 gneE12"/>
    </vehicle>
    <vehicle id="145" depart="159.50">
        <route edges="-gneE11 2/0to2/1 2/1to2/2 gneE9"/>
    </vehicle>
    <vehicle id="146" depart="160.60">
        <route edges="2/0to1/0 1/0to0/0 0/0to0/1 0/1to0/2 gneE5"/>
    </vehicle>
    <vehicle id="147" depart="161.70">
        <route edges="gneE19 1/2to1/1 1/1to0/1 0/1to0/0 gneE13"/>
    </vehicle>
    <vehicle id="148" depart="162.80">
        <route edges="gneE23 0/1to0/2 0/2to1/2 -gneE19"/>
    </vehicle>
    <vehicle id="149" depart="163.90">
        <route edges="-gneE8 2/2to1/2 1/2to1/1 1/1to1/0 -gneE22"/>
    </vehicle>
    <vehicle id="150" depart="165.00">
        <route edges="-gneE7 0/2to1/2 1/2to1/1 1/1to1/0"/>
    </vehicle>
    <vehicle id="151" depart="166.10">
        <route edges="-gneE12 2/0to1/0 1/0to0/0 0/0to0/1 -gneE23"/>
    </vehicle>
    <vehicle id="152" depart="167.20">
        <route edges="gneE23 0/1to0/2 0/2to1/2 1/2to2/2 gneE9"/>
    </vehicle>
    <vehicle id="153" depart="168.30">
        <route edges="gneE19 1/2to1/1 1/1to2/1 -gneE20"/>
    </vehicle>
    <vehicle id="154" depart="169.40">
        <route edges="-gneE12 2/0to1/0 1/0to0/0 gneE13"/>
    </vehicle>
    <vehicle id="155" depart="170.50">
        <route edges="-gneE9 2/2to1/2 1/2to1/1 1/1to0/1 -gneE23"/>
    </vehicle>
    <vehicle id="156" depart="171.60">
        <route edges="-gneE5 0/2to1/2 1/2to1/1 1/1to2/1 -gneE20"/>
    </vehicle>
    <vehicle id="157" depart="172.70">
        <route edges="-gneE12 2/0to1/0 1/0to0/0 0/0to0/1 0/1to0/2 gneE5"/>
    </vehicle>
    <vehicle id="158" depart="173.80">
        <route edges="-gneE5 0/2to1/2 -gneE19"/>
    </vehicle>
    <vehicle id="159" depart="174.90">
        <route edges="0/1to0/2 0/2to1/2 1/2to2/2 gneE9"/>
    </vehicle>
    <vehicle id="160" depart="176.00">
        <route edges="gneE23 0/1to0/2 0/2to1/2 -gneE19"/>
    </vehicle>
    <vehicle id="161" depart="177.10">
        <route edges="-gneE12 2/0to1/0"/>
    </vehicle>
    <vehicle id="162" depart="178.20">
        <route edges="-gneE7 0/2to1/2 1/2to2/2 gneE9"/>
    </vehicle>
    <vehicle id="163" depart="179.30">
        <route edges="-gneE8 2/2to1/2 1/2to0/2 gneE7"/>
    </vehicle>
    <vehicle id="164" depart="180.40">
        <route edges="-gneE8 2/2to2/1 2/1to2/0 gneE12"/>
    </vehicle>
    <vehicle id="165" depart="181.50">
        <route edges="-gneE11 2/0to1/0 1/0to0/0 0/0to0/1 -gneE23"/>
    </vehicle>
    <vehicle id="166" depart="182.60">
        <route edges="-gneE11 2/0to1/0 1/0to0/0 0/0to0/1 0/1to0/2 gneE7"/>
    </vehicle>
    <vehicle id="167" depart="183.70">
        <route edges="gneE23 0/1to0/2 0/2to1/2 -gneE19"/>
    </vehicle>
    <vehicle id="168" depart="184.80">
        <route edges="gneE22 1/0to1/1 1/1to1/2 1/2to2/2 gneE9"/>
    </vehicle>
    <vehicle id="169" depart="185.90">
        <route edges="-gneE8 2/2to1/2 1/2to1/1 1/1to0/1 -gneE23"/>
    </vehicle>
    <vehicle id="170" depart="187.00">
        <route edges="gneE22 1/0to1/1 1/1to2/1 2/1to1/1"/>
    </vehicle>
    <vehicle id="171" depart="188.10">
        <route edges="gneE20 2/1to2/0 gneE11"/>
    </vehicle>
    <vehicle id="172" depart="189.20">
        <route edges="-gneE14 0/0to1/0 1/0to1/1 1/1to0/1"/>
    </vehicle>
    <vehicle id="173" depart="190.30">
        <route edges="-gneE8 2/2to1/2 1/2to1/1 1/1to1/0 -gneE22"/>
    </vehicle>
    <vehicle id="174" depart="191.40">
        <route edges="-gneE5 0/2to1/2 -gneE19"/>
    </vehicle>
    <vehicle id="175" depart="192.50">
        <route edges="gneE22 1/0to0/0 0/0to0/1 0/1to0/2 0/2to0/1"/>
    </vehicle>
    <vehicle id="176" depart="193.60">
        <route edges="gneE22 1/0to1/1 1/1to1/2 -gneE19"/>
    </vehicle>
    <vehicle id="177" depart="194.70">
        <route edges="gneE20 2/1to1/1 1/1to1/0 -gneE22"/>
    </vehicle>
    <vehicle id="178" depart="195.80">
        <route edges="0/0to1/0 1/0to1/1 1/1to2/1 -gneE20"/>
    </vehicle>
    <vehicle id="179" depart="196.90">
        <route edges="-gneE11 2/0to1/0 1/0to0/0 0/0to0/1 0/1to0/2 gneE7"/>
    </vehicle>
    <vehicle id="180" depart="198.00">
        <route edges="-gneE7 0/2to1/2 1/2to2/2 gneE8"/>
    </vehicle>
    <vehicle id="181" depart="199.10">
        <route edges="-gneE5 0/2to1/2 1/2to1/1 1/1to2/1 2/1to1/1"/>
    </vehicle>
    <vehicle id="182" depart="200.20">
        <route edges="gneE19 1/2to1/1 1/1to0/1 0/1to0/0 gneE13"/>
    </vehicle>
    <vehicle id="183" depart="201.30">
        <route edges="gneE19 1/2to1/1 1/1to0/1 -gneE23"/>
    </vehicle>
    <vehicle id="184" depart="202.40">
        <route edges="-gneE5 0/2to1/2 1/2to1/1 1/1to2/1 -gneE20"/>
    </vehicle>
    <vehicle id="185" depart="203.50">
        <route edges="0/0to1/0 1/0to1/1 1/1to1/2 1/2to2/2 gneE8"/>
    </vehicle>
    <vehicle id="186" depart="204.60">
        <route edges="-gneE14 0/0to1/0 1/0to1/1 1/1to2/1 -gneE20"/>
    </vehicle>
    <vehicle id="187" depart="205.70">
        <route edges="gneE19 1/2to1/1 1/1to2/1 -gneE20"/>
    </vehicle>
    <vehicle id="188" depart="206.80">
        <route edges="gneE23 0/1to0/2 0/2to1/2 1/2to2/2"/>
    </vehicle>
    <vehicle id="189" depart="207.90">
        <route edges="-gneE12 2/0to2/1 2/1to2/2 gneE8"/>
    </vehicle>
    <vehicle id="190" depart="209.00">
        <route edges="-gneE9 2/2to2/1 2/1to2/0 gneE11"/>
    </vehicle>
    <vehicle id="191" depart="210.10">
        <route edges="gneE22 1/0to0/0 gneE13"/>
    </vehicle>
    <vehicle id="192" depart="211.20">
        <route edges="-gneE11 2/0to1/0 1/0to0/0 gneE14"/>
    </vehicle>
    <vehicle id="193" depart="212.30">
        <route edges="-gneE11 2/0to1/0 1/0to1/1 1/1to1/2 -gneE19"/>
    </vehicle>
    <vehicle id="194" depart="213.40">
        <route edges="-gneE14 0/0to1/0 1/0to1/1 1/1to2/1"/>
    </vehicle>
    <vehicle id="195" depart="214.50">
        <route edges="-gneE11 2/0to2/1 2/1to2/2 gneE8"/>
    </vehicle>
    <vehicle id="196" depart="215.60">
        <route edges="-gneE12 2/0to1/0 1/0to0/0 gneE13"/>
    </vehicle>
    <vehicle id="197" depart="216.70">
        <route edges="-gneE14 0/0to0/1 -gneE23"/>
    </vehicle>
    <vehicle id="198" depart="217.80">
        <route edges="-gneE14 0/0to0/1 0/1to0/2 0/2to1/2 -gneE19"/>
    </vehicle>
    <vehicle id="199" depart="218.90">
        <route edges="-gneE8 2/2to2/1 2/1to2/0 gneE11"/>
    </vehicle>
    <vehicle id="200" depart="220.00">
        <route edges="-gneE13 0/0to1/0 -gneE22"/>
    </vehicle>
    <vehicle id="201" depart="221.10">
        <route edges="1/0to1/1 1/1to1/2 1/2to2/2 gneE9"/>
    </vehicle>
    <vehicle id="202" depart="222.20">
        <route edges="2/2to1/2 1/2to1/1 1/1to1/0 -gneE22"/>
    </vehicle>
    <vehicle id="203" depart="223.30">
        <route edges="-gneE9 2/2to1/2 1/2to1/1 1/1to1/0 -gneE22"/>
    </vehicle>
    <vehicle id="204" depart="224.40">
        <route edges="gneE20 2/1to1/1 1/1to1/2 -gneE19"/>
    </vehicle>
    <vehicle id="205" depart="225.50">
        <route edges="-gneE14 0/0to0/1 0/1to0/2 0/2to1/2 1/2to2/2 gneE9"/>
    </vehicle>
    <vehicle id="206" depart="226.60">
        <route edges="2/0to1/0 1/0to1/1 1/1to1/2 1/2to2/2 gneE9"/>
    </vehicle>
    <vehicle id="207" depart="227.70">
        <route edges="2/2to2/1 2/1to1/1 1/1to0/1 0/1to0/2 gneE7"/>
    </vehicle>
    <vehicle id="208" depart="228.80">
        <route edges="gneE22 1/0to0/0 0/0to0/1 -gneE23"/>
    </vehicle>
    <vehicle id="209" depart="229.90">
        <route edges="gneE22 1/0to2/0 gneE12"/>
    </vehicle>
    <vehicle id="210" depart="231.00">
        <route edges="gneE23 0/1to0/0 gneE14"/>
    </vehicle>
    <vehicle id="211" depart="232.10">
        <route edges="gneE23 0/1to0/2 0/2to1/2 1/2to2/2 gneE9"/>
    </vehicle>
    <vehicle id="212" depart="233.20">
        <route edges="-gneE5 0/2to0/1 0/1to0/0 0/0to1/0 1/0to2/0 2/0to1/0"/>
    </vehicle>
    <vehicle id="213" depart="234.30">
        <route edges="0/0to0/1 0/1to0/2 0/2to1/2 1/2to2/2"/>
    </vehicle>
    <vehicle id="214" depart="235.40">
        <route edges="gneE19 1/2to1/1 1/1to2/1 -gneE20"/>
    </vehicle>
    <vehicle id="215" depart="236.50">
        <route edges="-gneE5 0/2to0/1 0/1to0/0 gneE14"/>
    </vehicle>
    <vehicle id="216" depart="237.60">
        <route edges="-gneE7 0/2to1/2 1/2to2/2 gneE9"/>
    </vehicle>
    <vehicle id="217" depart="238.70">
        <route edges="gneE19 1/2to1/1"/>
    </vehicle>
    <vehicle id="218" depart="239.80">
        <route edges="-gneE14 0/0to0/1"/>
    </vehicle>
    <vehicle id="219" depart="240.90">
        <route edges="-gneE14 0/0to0/1 0/1to0/2 0/2to1/2 1/2to0/2"/>
    </vehicle>
    <vehicle id="220" depart="242.00">
        <route edges="0/1to0/0 0/0to0/1 0/1to0/2 0/2to1/2 -gneE19"/>
    </vehicle>
    <vehicle id="221" depart="243.10">
        <route edges="gneE20 2/1to1/1 1/1to0/1 0/1to0/2 gneE5"/>
    </vehicle>
    <vehicle id="222" depart="244.20">
        <route edges="gneE19 1/2to1/1 1/1to0/1 0/1to0/0 gneE13"/>
    </vehicle>
    <vehicle id="223" depart="245.30">
        <route edges="0/2to1/2 1/2to1/1 1/1to0/1 0/1to0/0 gneE13"/>
    </vehicle>
    <vehicle id="224" depart="246.40">
        <route edges="-gneE14 0/0to0/1 0/1to1/1"/>
    </vehicle>
    <vehicle id="225" depart="247.50">
        <route edges="-gneE14 0/0to0/1 0/1to0/2 0/2to1/2 1/2to2/2 2/2to1/2"/>
    </vehicle>
    <vehicle id="226" depart="248.60">
        <route edges="gneE20 2/1to1/1 1/1to0/1 0/1to0/2 gneE7"/>
    </vehicle>
    <vehicle id="227" depart="249.70">
        <route edges="-gneE12 2/0to1/0 1/0to0/0 0/0to0/1 0/1to0/2 gneE5"/>
    </vehicle>
    <vehicle id="228" depart="250.80">
        <route edges="-gneE7 0/2to0/1 0/1to0/0 0/0to1/0 -gneE22"/>
    </vehicle>
    <vehicle id="229" depart="251.90">
        <route edges="-gneE12 2/0to2/1 2/1to2/2 gneE9"/>
    </vehicle>
    <vehicle id="230" depart="253.00">
        <route edges="gneE20 2/1to2/2 gneE8"/>
    </vehicle>
    <vehicle id="231" depart="254.10">
        <route edges="gneE20 2/1to1/1 1/1to0/1 0/1to0/0"/>
    </vehicle>
    <vehicle id="232" depart="255.20">
        <route edges="-gneE14 0/0to0/1 0/1to0/2 0/2to1/2 1/2to2/2 gneE8"/>
    </vehicle>
    <vehicle id="233" depart="256.30">
        <route edges="gneE20 2/1to1/1 1/1to0/1 0/1to0/2 gneE5"/>
    </vehicle>
    <vehicle id="234" depart="257.40">
        <route edges="-gneE5 0/2to1/2 1/2to1/1 1/1to2/1 2/1to1/1"/>
    </vehicle>
    <vehicle id="235" depart="258.50">
        <route edges="1/2to1/1 1/1to0/1 0/1to0/0 0/0to1/0"/>
    </vehicle>
    <vehicle id="236" depart="259.60">
        <route edges="-gneE8 2/2to1/2 1/2to1/1 1/1to0/1 0/1to0/0 0/0to0/1"/>
    </vehicle>
    <vehicle id="237" depart="260.70">
        <route edges="-gneE7 0/2to0/1 0/1to0/0 0/0to1/0 1/0to2/0 gneE12"/>
    </vehicle>
    <vehicle id="238" depart="261.80">
        <route edges="gneE23 0/1to0/2 0/2to1/2 1/2to2/2 gneE8"/>
    </vehicle>
    <vehicle id="239" depart="262.90">
        <route edges="-gneE7 0/2to0/1 0/1to0/0 0/0to1/0 1/0to2/0 gneE11"/>
    </vehicle>
    <vehicle id="240" depart="264.00">
        <route edges="gneE23 0/1to0/2 0/2to1/2 1/2to2/2 gneE8"/>
    </vehicle>
    <vehicle id="241" depart="265.10">
        <route edges="2/0to2/1 2/1to1/1 1/1to0/1 -gneE23"/>
    </vehicle>
    <vehicle id="242" depart="266.20">
        <route edges="-gneE5 0/2to1/2 1/2to1/1"/>
    </vehicle>
    <vehicle id="243" depart="267.30">
        <route edges="-gneE5 0/2to0/1 0/1to0/0 gneE14"/>
    </vehicle>
    <vehicle id="244" depart="268.40">
        <route edges="gneE23 0/1to0/0 gneE14"/>
    </vehicle>
    <vehicle id="245" depart="269.50">
        <route edges="-gneE13 0/0to1/0 1/0to1/1 1/1to2/1 -gneE20"/>
    </vehicle>
    <vehicle id="246" depart="270.60">
        <route edges="gneE20 2/1to2/0 gneE11"/>
    </vehicle>
    <vehicle id="247" depart="271.70">
        <route edges="gneE20 2/1to1/1 1/1to1/2 -gneE19"/>
    </vehicle>
    <vehicle id="248" depart="272.80">
        <route edges="-gneE12 2/0to1/0 1/0to1/1 1/1to1/2 1/2to1/1"/>
    </vehicle>
    <vehicle id="249" depart="273.90">
        <route edges="gneE23 0/1to0/2 0/2to1/2 1/2to2/2 gneE8"/>
    </vehicle>
    <vehicle id="250" depart="275.00">
        <route edges="gneE22 1/0to0/0 gneE13"/>
    </vehicle>
    <vehicle id="251" depart="276.10">
        <route edges="-gneE11 2/0to1/0 1/0to1/1 1/1to1/2 -gneE19"/>
    </vehicle>
    <vehicle id="252" depart="277.20">
        <route edges="-gneE8 2/2to1/2 1/2to1/1 1/1to0/1 0/1to0/0 gneE13"/>
    </vehicle>
    <vehicle id="253" depart="278.30">
        <route edges="gneE19 1/2to0/2 gneE5"/>
    </vehicle>
    <vehicle id="254" depart="279.40">
        <route edges="0/0to1/0 1/0to1/1 1/1to2/1"/>