<?xml version="1.0" encoding="UTF-8"?>

<!-- generated on Thu Apr 12 12:58:07 2018 by Netedit Version 0.30.0
<?xml version="1.0" encoding="UTF-8"?>

<configuration xmlns:xsi="http://www.w3.org/2001/XMLSchema-instance" xsi:noNamespaceSchemaLocation="http://sumo.dlr.de/xsd/netconvertConfiguration.xsd">

    <input>
        <sumo-net-file value="/Users/lorenzocesconetto/Desktop/TFC/Sumo/simple_T/simple_T.net.xml"/>
    </input>

    <output>
        <output-file value="/Users/lorenzocesconetto/Desktop/TFC/Sumo/simple_T/simple_T.net.xml"/>
    </output>

    <processing>
        <no-turnarounds value="true"/>
        <offset.disable-normalization value="true"/>
        <lefthand value="false"/>
        <junctions.corner-detail value="0"/>
        <rectangular-lane-cut value="false"/>
    </processing>

</configuration>
-->

<net version="0.27" xmlns:xsi="http://www.w3.org/2001/XMLSchema-instance" xsi:noNamespaceSchemaLocation="http://sumo.dlr.de/xsd/net_file.xsd">

    <location netOffset="0.00,0.00" convBoundary="-100.00,-150.00,200.00,0.00" origBoundary="-10000000000.00,-10000000000.00,10000000000.00,10000000000.00" projParameter="!"/>

    <edge id=":gneJ3_0" function="internal">
        <lane id=":gneJ3_0_0" index="0" speed="13.89" length="9.50" shape="54.75,1.65 45.25,1.65"/>
    </edge>
    <edge id=":gneJ3_1" function="internal">
        <lane id=":gneJ3_1_0" index="0" speed="13.89" length="5.00" shape="51.65,-4.75 51.84,-3.39 52.42,-2.43 53.39,-1.84 54.75,-1.65"/>
    </edge>
    <edge id=":gneJ3_2" function="internal">
        <lane id=":gneJ3_2_0" index="0" speed="13.89" length="7.85" shape="48.35,-4.75 48.16,-1.95 47.58,0.05 46.61,1.25 45.25,1.65"/>
    </edge>
    <edge id=":gneJ3_3" function="internal">
        <lane id=":gneJ3_3_0" index="0" speed="13.89" length="9.50" shape="45.25,-1.65 54.75,-1.65"/>
    </edge>

    <edge id="-gneE1" from="gneJ3" to="gneJ1" priority="1">
        <lane id="-gneE1_0" index="0" speed="13.89" length="145.25" shape="45.25,1.65 -100.00,1.65"/>
    </edge>
    <edge id="-gneE2" from="gneJ3" to="gneJ4" priority="1">
        <lane id="-gneE2_0" index="0" speed="13.89" length="145.25" shape="54.75,-1.65 200.00,-1.65"/>
    </edge>
    <edge id="gneE1" from="gneJ1" to="gneJ3" priority="1">
        <lane id="gneE1_0" index="0" speed="13.89" length="145.25" shape="-100.00,-1.65 45.25,-1.65"/>
    </edge>
    <edge id="gneE2" from="gneJ4" to="gneJ3" priority="1">
        <lane id="gneE2_0" index="0" speed="13.89" length="145.25" shape="200.00,1.65 54.75,1.65"/>
    </edge>
    <edge id="gneE3" from="gneJ5" to="gneJ3" priority="1" spreadType="center">
        <lane id="gneE3_0" index="0" speed="13.89" length="145.25" shape="51.65,-150.00 51.65,-4.75"/>
        <lane id="gneE3_1" index="1" speed="13.89" length="145.25" shape="48.35,-150.00 48.35,-4.75"/>
    </edge>

    <tlLogic id="gneJ3" type="static" programID="0" offset="0">
        <phase duration="41" state="GrrG"/>
        <phase duration="4" state="yrry"/>
        <phase duration="41" state="rGGr"/>
        <phase duration="4" state="ryyr"/>
    </tlLogic>

    <junction id="gneJ1" type="dead_end" x="-100.00" y="0.00" incLanes="-gneE1_0" intLanes="" shape="-100.00,-0.05 -100.00,3.25 -100.00,0.05"/>
    <junction id="gneJ3" type="traffic_light" x="50.00" y="0.00" incLanes="gneE2_0 gneE3_0 gneE3_1 gneE1_0" intLanes=":gneJ3_0_0 :gneJ3_1_0 :gneJ3_2_0 :gneJ3_3_0" shape="54.75,3.25 54.75,-3.25 53.25,-4.75 46.75,-4.75 45.25,-3.25 45.25,3.25">
        <request index="0" response="0100" foes="0100" cont="0"/>
        <request index="1" response="0000" foes="1000" cont="0"/>
        <request index="2" response="0000" foes="1001" cont="0"/>
        <request index="3" response="0110" foes="0110" cont="0"/>
    </junction>
    <junction id="gneJ4" type="dead_end" x="200.00" y="0.00" incLanes="-gneE2_0" intLanes="" shape="200.00,0.05 200.00,-3.25 200.00,-0.05"/>
    <junction id="gneJ5" type="dead_end" x="50.00" y="-150.00" incLanes="" intLanes="" shape="46.75,-150.00 53.25,-150.00"/>

    <connection from="gneE1" to="-gneE2" fromLane="0" toLane="0" via=":gneJ3_3_0" tl="gneJ3" linkIndex="3" dir="s" state="o"/>
    <connection from="gneE2" to="-gneE1" fromLane="0" toLane="0" via=":gneJ3_0_0" tl="gneJ3" linkIndex="0" dir="s" state="o"/>
    <connection from="gneE3" to="-gneE2" fromLane="0" toLane="0" via=":gneJ3_1_0" tl="gneJ3" linkIndex="1" dir="r" state="o"/>
    <connection from="gneE3" to="-gneE1" fromLane="1" toLane="0" via=":gneJ3_2_0" tl="gneJ3" linkIndex="2" dir="l" state="o"/>

    <connection from=":gneJ3_0" to="-gneE1" fromLane="0" toLane="0" dir="s" state="M"/>
    <connection from=":gneJ3_1" to="-gneE2" fromLane="0" toLane="0" dir="s" state="M"/>
    <connection from=":gneJ3_2" to="-gneE1" fromLane="0" toLane="0" dir="s" state="M"/>
    <connection from=":gneJ3_3" to="-gneE2" fromLane="0" toLane="0" dir="s" state="M"/>

</net>
