<?xml version="1.0" encoding="UTF-8"?>

<!-- generated on Sun May  6 21:37:32 2018 by SUMO duarouter Version 0.30.0
<?xml version="1.0" encoding="UTF-8"?>

<configuration xmlns:xsi="http://www.w3.org/2001/XMLSchema-instance" xsi:noNamespaceSchemaLocation="http://sumo.dlr.de/xsd/duarouterConfiguration.xsd">

    <input>
        <net-file value="campinas/campinas.net.xml"/>
        <route-files value="trips.trips.xml"/>
    </input>

    <output>
        <output-file value="campinas/route/campinas-2.0-2.rou.xml"/>
    </output>

    <processing>
        <ignore-errors value="true"/>
    </processing>

    <time>
        <begin value="0.0"/>
        <end value="1000.0"/>
    </time>

    <report>
        <no-warnings value="true"/>
        <no-step-log value="true"/>
    </report>

</configuration>
-->

<routes xmlns:xsi="http://www.w3.org/2001/XMLSchema-instance" xsi:noNamespaceSchemaLocation="http://sumo.dlr.de/xsd/routes_file.xsd">
    <vehicle id="0" depart="0.00">
        <route edges="183876535#0 183876535#2 183876535#4 430457021#0 430457021#2 70200195#1 70200195#2 -77680543#2 -77680543#1 -77680543#0 77680541#0 76845633#1 -77676171#1 -77676171#0 77676171#0"/>
    </vehicle>
    <vehicle id="1" depart="2.00">
        <route edges="183658213#0 183658213#1 -77680543#2 -77680543#1 -77680543#0 77680541#0 76845633#1 -77676171#1 -76845636#1 -76845636#0"/>
    </vehicle>
    <vehicle id="2" depart="4.00">
        <route edges="77680543#2 -77680543#2 -77680543#1 -77680543#0 419238469"/>
    </vehicle>
    <vehicle id="3" depart="6.00">
        <route edges="563505750 563505748#1 -85701990#1 -85701990#0 563505742 -89530503#6 -77948714#1 563505756#2"/>
    </vehicle>
    <vehicle id="4" depart="8.00">
        <route edges="-563505756#2 -563505756#1 563505743#3 563505743#4"/>
    </vehicle>
    <vehicle id="5" depart="10.00">
        <route edges="-147419826#5 77948714#0 77948714#1 89530503#6 89530503#7"/>
    </vehicle>
    <vehicle id="6" depart="12.00">
        <route edges="77948763 147419826#1 147419826#2 563505743#4"/>
    </vehicle>
    <vehicle id="7" depart="14.00">
        <route edges="70056689#0 564511808 70200195#6 70200195#7"/>
    </vehicle>
    <vehicle id="8" depart="16.00">
        <route edges="-75259402#0 564511809 70056689#1 70056689#1-AddedOffRampEdge 70056689#2 70056689#3 70056689#4 183876535#4 183876535#5 539685790 563505743#0 89530503#5 -89530503#5"/>
    </vehicle>
    <vehicle id="9" depart="18.00">
        <route edges="69322779#0 69322779#2 69322779#3 69416761 89530503#0 89530503#2 89530503#3 89530503#5 -77948714#1 563505756#2"/>
    </vehicle>
    <vehicle id="10" depart="20.00">
        <route edges="-419238469 77680541#0 77680541#1 564511810 75413341#1 76845629"/>
    </vehicle>
    <vehicle id="11" depart="22.00">
        <route edges="-563505756#2 77948714#1 -89530503#5 -89530503#3 -89530503#2 -89530503#0 539691351#0"/>
    </vehicle>
    <vehicle id="12" depart="24.00">
        <route edges="-75259402#1 -75259402#0 564511809 70056689#1 70056689#1-AddedOffRampEdge 70056689#2 70056689#3 70056689#4 183876535#4 183876535#5 539685790 563505750 563505748#1 -85701990#1 -85701990#0 -85701991"/>
    </vehicle>
    <vehicle id="13" depart="26.00">
        <route edges="76845638 -77676171#2 -77676171#1 -77676171#0 69322779#3 69416761 89530503#0 89530503#2 89530503#3"/>
    </vehicle>
    <vehicle id="14" depart="28.00">
        <route edges="77680543#0 77680543#1 -77680544#1 -77680544#0 539691353#2 539691353#3 539691353#4 539691353#5 70056689#4"/>
    </vehicle>
    <vehicle id="15" depart="30.00">
        <route edges="183876535#0 -430268897"/>
    </vehicle>
    <vehicle id="16" depart="32.00">
        <route edges="75413341#1 76845629 -564511811 -563505740#1 -563505740#0 -77676171#2 -77676171#1 -77676171#0 69322779#3 69416761 89530503#0 89530503#2 89530503#3 89530503#5 -77948714#1 563505756#2"/>
    </vehicle>
    <vehicle id="17" depart="34.00">
        <route edges="539691353#3 430457021#2 70200195#1 70200195#2 70200195#3 70200195#4 70200195#6 75259403"/>
    </vehicle>
    <vehicle id="18" depart="36.00">
        <route edges="147419826#0 147419826#1 147419826#2 538971325#1 563505755 563505753#0 563505753#1 563505746#0 539691353#1 539691353#2 70200195#0 70200195#1 70200195#2 70200195#3 70200195#4 564511809 -147379108"/>
    </vehicle>
    <vehicle id="19" depart="38.00">
        <route edges="538971325#0 538971325#1 563505755 563505753#0 563505753#1 563505746#0 539691353#1 539691353#2 70200195#0 70200195#1 70200195#2 70200195#3 70200195#4 70200195#6 70200195#7"/>
    </vehicle>
    <vehicle id="20" depart="40.00">
        <route edges="-147419826#5 77948714#0 77948714#1 -89530503#5 563505753#1 563505746#0 539691353#1 77680544#0 77680544#1 -77680543#1 -77680543#0 77680541#0 76845633#1 -77676171#1"/>
    </vehicle>
    <vehicle id="21" depart="42.00">
        <route edges="76845638 -77676171#2 -77676171#1 -77676171#0 69322779#3 69416761 89530503#0 89530503#2 89530503#3 89530503#5 -77948714#1 563505756#2"/>
    </vehicle>
    <vehicle id="22" depart="44.00">
        <route edges="-147419826#5 77948714#0 77948714#1 -89530503#5 563505753#1 563505750 563505748#1 563505748#2"/>
    </vehicle>
    <vehicle id="23" depart="46.00">
        <route edges="-75259402#1 75259402#1"/>
    </vehicle>
    <vehicle id="24" depart="48.00">
        <route edges="77948766 563505752 563505753#0 563505753#1 563505746#0 539691353#1 77680544#0 77680544#1 -77680543#1 -77680543#0 419238469"/>
    </vehicle>
    <vehicle id="25" depart="50.00">
        <route edges="70056689#0 70056689#1 70056689#1-AddedOffRampEdge 70056689#2 70056689#3 70056689#4 183876535#4 183876535#5 539685790 563505743#0 89530503#5 89530503#6 89530503#7"/>
    </vehicle>
    <vehicle id="26" depart="52.00">
        <route edges="70056689#0 70056689#1 70056689#1-AddedOffRampEdge 70056689#2 70056689#3 70056689#4 183876535#4 430457021#0 430457021#2 70200195#1 78685531#0"/>
    </vehicle>
    <vehicle id="27" depart="54.00">
        <route edges="75259403 -75259402#0 564511809 70056689#1 70056689#1-AddedOffRampEdge 70056689#2 70056689#3 70056689#4 183876535#4 183876535#5 539685790 563505743#0 89530503#5 -77948714#1 -563505756#1"/>
    </vehicle>
    <vehicle id="28" depart="56.00">
        <route edges="563505746#0 539685790 563505750 563505748#1 563505748#2"/>
    </vehicle>
    <vehicle id="29" depart="58.00">
        <route edges="538971325#0 538971325#1 563505755 563505753#0 563505753#1 563505746#0 539691353#1 539691353#2 70200195#0 70200195#1 70200195#2 70200195#3 70200195#4 564511809 -147379108"/>
    </vehicle>
    <vehicle id="30" depart="60.00">
        <route edges="183876535#0 183876535#2 183876535#4 183876535#5 183876535#7 -539691352 547113476"/>
    </vehicle>
    <vehicle id="31" depart="62.00">
        <route edges="-563505756#2 -563505756#1 78592298#0 78592298#1"/>
    </vehicle>
    <vehicle id="32" depart="64.00">
        <route edges="-76845633#2 77676171#2 563505740#0 563505740#1 564511811 -76845629"/>
    </vehicle>
    <vehicle id="33" depart="66.00">
        <route edges="563505741 -77676171#2 -77676171#1 -77676171#0 69322779#3 69322779#4 539691352 539691353#0 539691353#1 539691353#2 70200195#0 70200195#1 70200195#2 70200195#3 70200195#4 75259402#0 75259402#1"/>
    </vehicle>
    <vehicle id="34" depart="68.00">
        <route edges="70056689#0 70056689#1 70056689#1-AddedOffRampEdge 183658213#0 183658213#1 -77680543#2 -77680543#1 -77680543#0 77680541#0 76845633#1 -77676171#1 -76845636#1 -76845636#0"/>
    </vehicle>
    <vehicle id="35" depart="70.00">
        <route edges="-147419826#5 77948714#0 77948714#1 89530503#6 89530503#7"/>
    </vehicle>
    <vehicle id="36" depart="72.00">
        <route edges="76845626#0 -85701990#0 563505742 89530503#7"/>
    </vehicle>
    <vehicle id="37" depart="74.00">
        <route edges="78592296 563505752 563505753#0 -89530503#3 -89530503#2 -89530503#0 539691351#0"/>
    </vehicle>
    <vehicle id="38" depart="76.00">
        <route edges="77709897#0 89530503#2 89530503#3 563505753#1 563505750 563505748#1 563505748#2"/>
    </vehicle>
    <vehicle id="39" depart="78.00">
        <route edges="70200195#1 70200195#2 70200195#3 70200195#4 75259402#0 -75259403"/>
    </vehicle>
    <vehicle id="40" depart="80.00">
        <route edges="85701991 563505742 -89530503#6 -89530503#5 563505753#1 563505746#0"/>
    </vehicle>
    <vehicle id="41" depart="82.00">
        <route edges="-75259402#0 564511809 70056689#1 70056689#1-AddedOffRampEdge 70056689#2 70056689#3 70056689#4 183876535#4 183876535#5 539685790 563505743#0 -89530503#3 -89530503#2 77948766 -78592296"/>
    </vehicle>
    <vehicle id="42" depart="84.00">
        <route edges="89530503#3 563505753#1 563505746#0 539691353#1 539691353#2 70200195#0 70200195#1"/>
    </vehicle>
    <vehicle id="43" depart="86.00">
        <route edges="147419826#4 77948714#0 77948714#1 -89530503#5 563505753#1 563505746#0 539691353#1 539691353#2 70200195#0 70200195#1 70200195#2 70200195#3 70200195#4 70200195#6 75259403"/>
    </vehicle>
    <vehicle id="44" depart="88.00">
        <route edges="-563505756#2 77948714#1 -89530503#5 563505753#1 563505746#0 539691353#1 77680544#0 77680544#1 -77680543#1 -77680543#0 77680541#0 76845633#1 76845633#2"/>
    </vehicle>
    <vehicle id="45" depart="90.00">
        <route edges="-147419826#5 77948714#0 77948714#1 -89530503#5 563505753#1 563505746#0 539691353#1 539691353#2 70200195#0 70200195#1 70200195#2 70200195#3 70200195#4 70200195#6 70200195#7"/>
    </vehicle>
    <vehicle id="46" depart="92.00">
        <route edges="77680541#0 76845633#1 -77676171#1 -77676171#0 69322779#3 69416761 539691351#0"/>
    </vehicle>
    <vehicle id="47" depart="94.00">
        <route edges="78685531#1 70056689#3 70056689#4 183876535#4 183876535#5 539685790 563505743#0 563505743#1 563505743#2 563505743#3 563505743#4"/>
    </vehicle>
    <vehicle id="48" depart="96.00">
        <route edges="76845638 -77676171#2 -77676171#1 -77676171#0 69322779#3 69416761 89530503#0 77948766 563505751#0 563505751#1 563505751#2 -147419826#1 -147419826#0"/>
    </vehicle>
    <vehicle id="49" depart="98.00">
        <route edges="-77676171#1 77676171#1 77676171#2 -76845638"/>
    </vehicle>
    <vehicle id="50" depart="100.00">
        <route edges="75413341#0 75413341#1 76845629 -564511811 -563505740#1 -563505740#0 -77676171#2 -77676171#1 -77676171#0 69322779#3 69416761 89530503#0 77948766 563505751#0 563505751#1 563505751#2 -147419826#1 -77948763"/>
    </vehicle>
    <vehicle id="51" depart="102.00">
        <route edges="-75259402#1 -75259402#0 564511809 70056689#1 70056689#1-AddedOffRampEdge 70056689#2 70056689#3 70056689#4 183876535#4 183876535#5 539685790 563505743#0 -89530503#3 -89530503#2 77709897#1"/>
    </vehicle>
    <vehicle id="52" depart="104.00">
        <route edges="-147419826#5 77948714#0 77948714#1 -89530503#5 563505753#1 563505746#0 539691353#1 77680544#0 77680544#1 -77680543#1 -77680543#0 77680541#0 76845633#1 -77676171#1 -76845636#1"/>
    </vehicle>
    <vehicle id="53" depart="106.00">
        <route edges="76845638 -77676171#2 -77676171#1 -77676171#0 69322779#3 69416761 89530503#0 77709897#1"/>
    </vehicle>
    <vehicle id="54" depart="108.00">
        <route edges="147419826#2 538971325#1 563505755 563505753#0 563505753#1 563505746#0 539691353#1 539691353#2 539691353#3 539691353#4 539691353#5 539691353#6"/>
    </vehicle>
    <vehicle id="55" depart="110.00">
        <route edges="70056689#4 183876535#4 183876535#5 539685790 563505743#0 89530503#5 89530503#6 89530503#7"/>
    </vehicle>
    <vehicle id="56" depart="112.00">
        <route edges="563505752 563505753#0 563505753#1 563505746#0 539691353#1 77680544#0 77680544#1 -77680543#1 -77680543#0 77680541#0 77680541#1 564511810 75413341#1"/>
    </vehicle>
    <vehicle id="57" depart="114.00">
        <route edges="-76845633#2 -77676171#1 -77676171#0 69322779#3 69416761 89530503#0 89530503#2 89530503#3 563505753#1 563505750 563505748#1 -85701990#1 -85701990#0 -85701991"/>
    </vehicle>
    <vehicle id="58" depart="116.00">
        <route edges="563505741 -77676171#2 -77676171#1 -77676171#0 69322779#3 69416761 89530503#0 89530503#2 89530503#3 563505753#1 563505750"/>
    </vehicle>
    <vehicle id="59" depart="118.00">
        <route edges="77948763 147419826#1 147419826#2 538971325#1 563505755 563505753#0 -89530503#3 -89530503#2 -89530503#0 539691351#0"/>
    </vehicle>
    <vehicle id="60" depart="120.00">
        <route edges="-147419826#5 77948714#0 77948714#1 -89530503#5 563505753#1 563505746#0 539691353#1 539691353#2 70200195#0 70200195#1 70200195#2 70200195#3 70200195#4 70200195#6 70200195#7"/>
    </vehicle>
    <vehicle id="61" depart="122.00">
        <route edges="77680544#1 -77680543#1 -77680543#0 77680541#0 77680541#1 -563505740#1 -563505740#0 563505740#0"/>
    </vehicle>
    <vehicle id="62" depart="124.00">
        <route edges="147379108 70056689#1 70056689#1-AddedOffRampEdge 70056689#2 70056689#3 70056689#4 183876535#4 183876535#5 539685790 563505743#0 563505743#1 563505743#2 563505743#3 -147419826#2 -147419826#1 -77948763"/>
    </vehicle>
    <vehicle id="63" depart="126.00">
        <route edges="85701991 -85701991"/>
    </vehicle>
    <vehicle id="64" depart="128.00">
        <route edges="85701990#0 85701990#1 430268897 -430268897"/>
    </vehicle>
    <vehicle id="65" depart="130.00">
        <route edges="-147419826#5 77948714#0 77948714#1 -89530503#5 563505753#1 563505750 563505748#1 -85701990#1 -85701990#0 563505742"/>
    </vehicle>
    <vehicle id="66" depart="132.00">
        <route edges="563505751#2 147419826#2 538971325#1 563505756#1 563505756#2"/>
    </vehicle>
    <vehicle id="67" depart="134.00">
        <route edges="-76845633#2 -77676171#1 -77676171#0 69322779#3 69322779#4 539691352 539691353#0 539691353#1 539691353#2 539691353#3 539691353#4 539691353#5 70056689#4 183876535#4 183876535#5"/>
    </vehicle>
    <vehicle id="68" depart="136.00">
        <route edges="-89530503#7 -89530503#6 -89530503#5 563505753#1 563505746#0 539691353#1 77680544#0 77680544#1 -77680544#1"/>
    </vehicle>
    <vehicle id="69" depart="138.00">
        <route edges="78592298#0 563505751#2 147419826#2 538971325#1 563505755 563505753#0 563505753#1 563505746#0 539691353#1 539691353#2 70200195#0 70200195#1 70200195#2 70200195#3 70200195#4 70200195#6 70200195#7"/>
    </vehicle>
    <vehicle id="70" depart="140.00">
        <route edges="70200195#0 70200195#1"/>
    </vehicle>
    <vehicle id="71" depart="142.00">
        <route edges="76845638 -77676171#2 -77676171#1 -77676171#0 69322779#3 69416761 89530503#0 89530503#2 89530503#3 563505743#1"/>
    </vehicle>
    <vehicle id="72" depart="144.00">
        <route edges="-147419826#5 77948714#0 77948714#1 -89530503#5 563505753#1 563505746#0 539691353#1 539691353#2"/>
    </vehicle>
    <vehicle id="73" depart="146.00">
        <route edges="147419826#4 77948714#0 77948714#1 -89530503#5 563505753#1 563505746#0 539691353#1 77680544#0 77680544#1 -77680543#1 -77680543#0 77680541#0 76845633#1 -77676171#1 -76845636#1 -76845636#0"/>
    </vehicle>
    <vehicle id="74" depart="148.00">
        <route edges="76845638 -77676171#2 -77676171#1 -77676171#0 69322779#3 69416761 89530503#0 77948766 563505751#0 563505751#1 563505751#2 -147419826#1 -77948763"/>
    </vehicle>
    <vehicle id="75" depart="150.00">
        <route edges="147379108 70056689#1 70056689#1-AddedOffRampEdge 70056689#2 70056689#3 70056689#4 183876535#4 183876535#5 539685790 563505743#0 89530503#5 89530503#6 89530503#7"/>
    </vehicle>
    <vehicle id="76" depart="152.00">
        <route edges="70056689#4 183876535#4 183876535#5 539685790 563505743#0 -89530503#3 -89530503#2 77948766 -78592296"/>
    </vehicle>
    <vehicle id="77" depart="154.00">
        <route edges="76845638 563505740#0 563505740#1 -77680541#1 77680541#1"/>
    </vehicle>
    <vehicle id="78" depart="156.00">
        <route edges="-76845633#2 77676171#2 -76845638"/>
    </vehicle>
    <vehicle id="79" depart="158.00">
        <route edges="85701991 563505742 89530503#7"/>
    </vehicle>
    <vehicle id="80" depart="160.00">
        <route edges="563505741 -77676171#2 -77676171#1 -77676171#0 69322779#3 69416761"/>
    </vehicle>
    <vehicle id="81" depart="162.00">
        <route edges="538971325#0 538971325#1 563505755 563505753#0 563505753#1 563505750 563505748#1 -85701990#1 -85701990#0 -85701991"/>
    </vehicle>
    <vehicle id="82" depart="164.00">
        <route edges="-75259402#1 -75259402#0 564511809 70056689#1 70056689#1-AddedOffRampEdge 183658213#0 183658213#1 70200195#3"/>
    </vehicle>
    <vehicle id="83" depart="166.00">
        <route edges="77709897#0 89530503#2 89530503#3 563505753#1 563505746#0 539691353#1 77680544#0 77680544#1 -77680543#1 -77680543#0 77680541#0 77680541#1 564511811 -76845629"/>
    </vehicle>
    <vehicle id="84" depart="168.00">
        <route edges="77680543#0 77680543#1 -77680544#1 -77680544#0 539691353#2 539691353#3 539691353#4 539691353#5 70056689#4 183876535#4 183876535#5 539685790 563505743#0 -89530503#3 -89530503#2"/>
    </vehicle>
    <vehicle id="85" depart="170.00">
        <route edges="78592296 563505752 563505753#0 563505753#1 563505746#0 539691353#1 539691353#2 539691353#3 539691353#4 539691353#5"/>
    </vehicle>
    <vehicle id="86" depart="172.00">
        <route edges="70056689#0 70056689#1 70056689#1-AddedOffRampEdge 70056689#2 70056689#3 70056689#4 183876535#4 183876535#5 539685790 563505750 563505748#1 563505748#2"/>
    </vehicle>
    <vehicle id="87" depart="174.00">
        <route edges="-77676171#0 77676171#0 77676171#1 77676171#2 -76845638"/>
    </vehicle>
    <vehicle id="88" depart="176.00">
        <route edges="-147419826#5 77948714#0 77948714#1 77948714#2 -77948714#2"/>
    </vehicle>
    <vehicle id="89" depart="178.00">
        <route edges="69416761 89530503#0 89530503#2 89530503#3 563505753#1 563505746#0 183876535#7 539691353#0"/>
    </vehicle>
    <vehicle id="90" depart="180.00">
        <route edges="563505756#1 77948714#1 -77948714#1"/>
    </vehicle>
    <vehicle id="91" depart="182.00">
        <route edges="147419826#0 147419826#1 147419826#2 538971325#1 563505755 563505753#0 563505753#1 563505750 563505748#1 -85701990#1 -85701990#0 -85701991"/>
    </vehicle>
    <vehicle id="92" depart="184.00">
        <route edges="77680541#1 -563505740#1 -563505740#0 -77676171#2 -77676171#1 -76845636#1 -76845636#0"/>
    </vehicle>
    <vehicle id="93" depart="186.00">
        <route edges="-75259402#1 -75259402#0 564511809 70056689#1 70056689#1-AddedOffRampEdge 70056689#2 70056689#3 70056689#4 183876535#4 183876535#5 539685790 563505743#0 -89530503#3 -89530503#2"/>
    </vehicle>
    <vehicle id="94" depart="188.00">
        <route edges="69322779#0 69322779#2 69322779#3 69416761 89530503#0 77948766 563505751#0 563505751#1 563505751#2 -147419826#1 -77948763"/>
    </vehicle>
    <vehicle id="95" depart="190.00">
        <route edges="76845638 -77676171#2 -77676171#1 -77676171#0 69322779#3 69416761 89530503#0 89530503#2 89530503#3 563505753#1 563505750 563505748#1 -85701990#1 -85701990#0 -85701991"/>
    </vehicle>
    <vehicle id="96" depart="192.00">
        <route edges="77948763 147419826#1 147419826#2 538971325#1 563505755 563505753#0 563505753#1 563505746#0 183876535#7 -539691352"/>
    </vehicle>
    <vehicle id="97" depart="194.00">
        <route edges="-89530503#2 89530503#2 89530503#3 563505753#1 563505746#0 539691353#1 77680544#0 77680544#1 -77680543#1 -77680543#0 77680541#0 76845633#1 76845633#2"/>
    </vehicle>
    <vehicle id="98" depart="196.00">
        <route edges="85701991 -85701991"/>
    </vehicle>
    <vehicle id="99" depart="198.00">
        <route edges="70200195#2 70200195#3 70200195#4 564511809 70056689#1 70056689#1-AddedOffRampEdge 70056689#2 70056689#3 70056689#4 183876535#4 183876535#5 539685790 563505743#0 89530503#5 89530503#6 89530503#7"/>
    </vehicle>
    <vehicle id="100" depart="200.00">
        <route edges="70200195#2 -77680543#2 -77680543#1 -77680543#0 77680541#0 77680541#1 564511811 -76845629"/>
    </vehicle>
    <vehicle id="101" depart="202.00">
        <route edges="-76845636#1 77676169 69322779#2 69322779#3 69322779#4 539691352 539691353#0 539691353#1 539691353#2 70200195#0 70200195#1 70200195#2 70200195#3 70200195#4 75259402#0 75259402#1"/>
    </vehicle>
    <vehicle id="102" depart="204.00">
        <route edges="147379108 70056689#1 70056689#1-AddedOffRampEdge 183658213#0 183658213#1 -77680543#2 -77680543#1 -77680543#0 77680541#0 76845633#1 -77676171#1 -76845636#1 -76845636#0"/>
    </vehicle>
    <vehicle id="103" depart="206.00">
        <route edges="76845638 -77676171#2 -77676171#1 -77676171#0 69322779#3 69322779#4 539691352 539691353#0 539691353#1 539691353#2 539691353#3 539691353#4 539691353#5 539691353#6"/>
    </vehicle>
    <vehicle id="104" depart="208.00">
        <route edges="77948763 147419826#1 147419826#2 538971325#1 563505755 563505753#0 -89530503#3 -89530503#2 77948766 -78592296"/>
    </vehicle>
    <vehicle id="105" depart="210.00">
        <route edges="-539691352 539691352 539691353#0 539691353#1 539691353#2 539691353#3 539691353#4 539691353#5 539691353#6"/>
    </vehicle>
    <vehicle id="106" depart="212.00">
        <route edges="69322779#0 69322779#2 69322779#3 69322779#4 539691352 539691353#0 539691353#1 539691353#2 70200195#0"/>
    </vehicle>
    <vehicle id="107" depart="214.00">
        <route edges="76845638 -77676171#2 -77676171#1 -77676171#0 69322779#3 69416761 89530503#0 89530503#2 89530503#3 89530503#5 -77948714#1 -77948714#0 -147419826#4"/>
    </vehicle>
    <vehicle id="108" depart="216.00">
        <route edges="76845636#0 77676169 69322779#2 69322779#3 69416761 89530503#0 89530503#2 89530503#3 563505743#1"/>
    </vehicle>
    <vehicle id="109" depart="218.00">
        <route edges="69322779#4 539691352 539691353#0 539691353#1 77680544#0 77680544#1 -77680543#1 -77680543#0 77680541#0 76845633#1 76845633#2"/>
    </vehicle>
    <vehicle id="110" depart="220.00">
        <route edges="76845626#0 85701990#1 430268897 183876535#2 183876535#4 430457021#0 539691353#4 539691353#5 539691353#6"/>
    </vehicle>
    <vehicle id="111" depart="222.00">
        <route edges="564511808 564511809 70056689#1 70056689#1-AddedOffRampEdge 70056689#2 70056689#3 70056689#4 183876535#4 183876535#5 539685790 563505743#0 89530503#5 -77948714#1 -77948714#0 77948714#0"/>
    </vehicle>
    <vehicle id="112" depart="224.00">
        <route edges="78592296 563505752 563505753#0 -89530503#3 -89530503#2 89530503#2"/>
    </vehicle>
    <vehicle id="113" depart="226.00">
        <route edges="147419826#0 147419826#1 147419826#2 538971325#1 563505755 563505753#0 563505753#1 563505750 563505748#1 563505748#2"/>
    </vehicle>
    <vehicle id="114" depart="228.00">
        <route edges="85701991 563505742 -89530503#6 -89530503#5 563505743#1 563505743#2 78592298#0 78592298#1"/>
    </vehicle>
    <vehicle id="115" depart="230.00">
        <route edges="85701991 563505742 -89530503#6 -89530503#5 563505753#1 563505746#0 539691353#1 539691353#2 70200195#0 70200195#1 70200195#2 70200195#3 70200195#4 70200195#6"/>
    </vehicle>
    <vehicle id="116" depart="232.00">
        <route edges="-419238469 77680541#0 76845633#1 -77676171#1 -77676171#0 69322779#3 69416761 89530503#0 77948766 -78592296"/>
    </vehicle>
    <vehicle id="117" depart="234.00">
        <route edges="538971325#0 538971325#1 563505755 563505753#0 -89530503#3 -89530503#2 -89530503#0 89530503#0"/>
    </vehicle>
    <vehicle id="118" depart="236.00">
        <route edges="-75259402#1 -75259402#0 564511809 70056689#1 70056689#1-AddedOffRampEdge 70056689#2 70056689#3 70056689#4 183876535#4 183876535#5 539685790 563505743#0 89530503#5 77948714#2 -77948714#2"/>
    </vehicle>
    <vehicle id="119" depart="238.00">
        <route edges="78592296 563505752 563505753#0 563505753#1 563505746#0 539691353#1 539691353#2 70200195#0 70200195#1 70200195#2 70200195#3"/>
    </vehicle>
    <vehicle id="120" depart="240.00">
        <route edges="564511809 70056689#1 70056689#1-AddedOffRampEdge 70056689#2 70056689#3 70056689#4 183876535#4 183876535#5 539685790 563505743#0 89530503#5 -77948714#1 563505756#2"/>
    </vehicle>
    <vehicle id="121" depart="242.00">
        <route edges="76845638 -77676171#2 -76845633#1"/>
    </vehicle>
    <vehicle id="122" depart="244.00">
        <route edges="538971325#0 538971325#1 563505755 563505753#0 563505753#1 563505746#0 539691353#1 77680544#0 77680544#1 -77680543#1 -77680543#0 77680541#0 76845633#1 76845633#2"/>
    </vehicle>
    <vehicle id="123" depart="246.00">
        <route edges="76845633#1 -77676171#1 -77676171#0 69322779#3 69322779#4 539691352 539691353#0 539691353#1 539691353#2 70200195#0 70200195#1 70200195#2 70200195#3 70200195#4 70200195#6 75259403"/>
    </vehicle>
    <vehicle id="124" depart="248.00">
        <route edges="70056689#0 564511808 75259402#0 -75259403"/>
    </vehicle>
    <vehicle id="125" depart="250.00">
        <route edges="-419238469 77680541#0 77680541#1 564511810 75413341#1 76845629"/>
    </vehicle>
    <vehicle id="126" depart="252.00">
        <route edges="76845626#0 85701990#1 430268897 183876535#2 183876535#4 430457021#0 430457021#2 70200195#1 70200195#2 70200195#3 70200195#4 564511809 -147379108"/>
    </vehicle>
    <vehicle id="127" depart="254.00">
        <route edges="85701991 -85701991"/>
    </vehicle>
    <vehicle id="128" depart="256.00">
        <route edges="564511810 75413341#1 76845629 -564511811 -563505740#1 -563505740#0 -77676171#2 76845633#2"/>
    </vehicle>
    <vehicle id="129" depart="258.00">
        <route edges="563505744 563505743#0 563505743#1 563505743#2 563505743#3 -147419826#2 147419826#2"/>
    </vehicle>
    <vehicle id="130" depart="260.00">
        <route edges="76845626#0 85701990#1 430268897 183876535#2 183876535#4 430457021#0 430457021#2 70200195#1 70200195#2 -77680543#2 -77680543#1 -77680543#0 419238469"/>
    </vehicle>
    <vehicle id="131" depart="262.00">
        <route edges="147419826#0 147419826#1 147419826#2 563505743#4"/>
    </vehicle>
    <vehicle id="132" depart="264.00">
        <route edges="77948714#1 -89530503#5 563505753#1 563505746#0 539691353#1 539691353#2 539691353#3 539691353#4 539691353#5 539691353#6"/>
    </vehicle>
    <vehicle id="133" depart="266.00">
        <route edges="-89530503#7 -89530503#6 -77948714#1 563505756#2"/>
    </vehicle>
    <vehicle id="134" depart="268.00">
        <route edges="76845636#0 77676169 69322779#2 69322779#3 69322779#4 539691352 539691353#0 539691353#1 539691353#2 539691353#3 539691353#4"/>
    </vehicle>
    <vehicle id="135" depart="270.00">
        <route edges="-85701990#1 85701990#1 430268897 183876535#2 183876535#4 430457021#0 430457021#2 70200195#1 70200195#2 70200195#3 70200195#4 564511809 70056689#1 70056689#1-AddedOffRampEdge 70056689#2"/>
    </vehicle>
    <vehicle id="136" depart="272.00">
        <route edges="563505741 -77676171#2 -77676171#1 -76845636#1 -76845636#0"/>
    </vehicle>
    <vehicle id="137" depart="274.00">
        <route edges="183658213#0 183658213#1 70200195#3 70200195#4 564511809 70056689#1 70056689#1-AddedOffRampEdge 70056689#2 70056689#3 70056689#4 183876535#4 183876535#5 539685790 563505743#0 -89530503#3 -89530503#2 77948766 -78592296"/>
    </vehicle>
    <vehicle id="138" depart="276.00">
        <route edges="563505741 -77676171#2 -77676171#1 -77676171#0 69322779#3 69416761 89530503#0 89530503#2 89530503#3 89530503#5 -77948714#1 563505756#2"/>
    </vehicle>
    <vehicle id="139" depart="278.00">
        <route edges="70056689#0 70056689#1 70056689#1-AddedOffRampEdge 70056689#2 70056689#3 70056689#4 183876535#4 183876535#5 539685790 563505743#0 -89530503#3 -89530503#2 77948766 -78592296"/>
    </vehicle>
    <vehicle id="140" depart="280.00">
        <route edges="76845638 -77676171#2 -77676171#1 -77676171#0 69322779#3 69416761 89530503#0 89530503#2 89530503#3 563505743#1 563505743#2 563505743#3 563505743#4"/>
    </vehicle>
    <vehicle id="141" depart="282.00">
        <route edges="85701991 563505742 -89530503#6 -89530503#5 563505743#1 563505743#2 563505743#3 -147419826#2 -147419826#1 -77948763"/>
    </vehicle>
    <vehicle id="142" depart="284.00">
        <route edges="76845638 -77676171#2 -77676171#1 -77676171#0 69322779#3 69416761 89530503#0 89530503#2 89530503#3 89530503#5 -77948714#1 563505756#2"/>
    </vehicle>
    <vehicle id="143" depart="286.00">
        <route edges="70200195#6 75259403 75259402#1"/>
    </vehicle>
    <vehicle id="144" depart="288.00">
        <route edges="538971325#0 -147419826#2 -147419826#1 -147419826#0"/>
    </vehicle>
    <vehicle id="145" depart="290.00">
        <route edges="-563505756#2 77948714#1 -89530503#5 -89530503#3 -89530503#2 77709897#1"/>
    </vehicle>
    <vehicle id="146" depart="292.00">
        <route edges="147379108 70056689#1 70056689#1-AddedOffRampEdge 183658213#0 183658213#1 -77680543#2 -77680543#1 -77680543#0"/>
    </vehicle>
    <vehicle id="147" depart="294.00">
        <route edges="70056689#1-AddedOffRampEdge 70056689#2 70056689#3 70056689#4 183876535#4 183876535#5 539685790 563505743#0 89530503#5 -77948714#1 563505756#2"/>
    </vehicle>
    <vehicle id="148" depart="296.00">
        <route edges="563505744 563505746#0 539691353#1 77680544#0 77680544#1 77680543#2"/>
    </vehicle>
    <vehicle id="149" depart="298.00">
        <route edges="77948714#1 -89530503#5 563505753#1 563505746#0 539691353#1 77680544#0 77680544#1 -77680543#1 -77680543#0 77680541#0 76845633#1 -77676171#1 -76845636#1"/>
    </vehicle>
    <vehicle id="150" depart="300.00">
        <route edges="-76845633#2 -77676171#1 -77676171#0 69322779#3 69416761 89530503#0 89530503#2 89530503#3 89530503#5 -77948714#1 -563505756#1"/>
    </vehicle>
    <vehicle id="151" depart="302.00">
        <route edges="-75259402#1 -75259402#0 564511809 -147379108"/>
    </vehicle>