<?xml version="1.0" encoding="UTF-8"?>

<!-- generated on Sun May  6 21:12:17 2018 by SUMO duarouter Version 0.30.0
<?xml version="1.0" encoding="UTF-8"?>

<configuration xmlns:xsi="http://www.w3.org/2001/XMLSchema-instance" xsi:noNamespaceSchemaLocation="http://sumo.dlr.de/xsd/duarouterConfiguration.xsd">

    <input>
        <net-file value="simple_T/simple_T.net.xml"/>
        <route-files value="trips.trips.xml"/>
    </input>

    <output>
        <output-file value="simple_T/route/simple_T-1.1-1.rou.xml"/>
    </output>

    <processing>
        <ignore-errors value="true"/>
    </processing>

    <time>
        <begin value="0.0"/>
        <end value="1000.0"/>
    </time>

    <report>
        <no-warnings value="true"/>
        <no-step-log value="true"/>
    </report>

</configuration>
-->

<routes xmlns:xsi="http://www.w3.org/2001/XMLSchema-instance" xsi:noNamespaceSchemaLocation="http://sumo.dlr.de/xsd/routes_file.xsd">
    <vehicle id="0" depart="0.00">
        <route edges="gneE1 -gneE2"/>
    </vehicle>
    <vehicle id="1" depart="1.10">
        <route edges="gneE3 -gneE1"/>
    </vehicle>
    <vehicle id="2" depart="2.20">
        <route edges="gneE3 -gneE2"/>
    </vehicle>
    <vehicle id="3" depart="3.30">
        <route edges="gneE3 -gneE1"/>
    </vehicle>
    <vehicle id="5" depart="5.50">
        <route edges="gneE2 -gneE1"/>
    </vehicle>
    <vehicle id="6" depart="6.60">
        <route edges="gneE1 -gneE2"/>
    </vehicle>
    <vehicle id="7" depart="7.70">
        <route edges="gneE3 -gneE2"/>
    </vehicle>
    <vehicle id="8" depart="8.80">
        <route edges="gneE3 -gneE1"/>
    </vehicle>
    <vehicle id="9" depart="9.90">
        <route edges="gneE3 -gneE2"/>
    </vehicle>
    <vehicle id="10" depart="11.00">
        <route edges="gneE1 -gneE2"/>
    </vehicle>
    <vehicle id="11" depart="12.10">
        <route edges="gneE1 -gneE2"/>
    </vehicle>
    <vehicle id="13" depart="14.30">
        <route edges="gneE1 -gneE2"/>
    </vehicle>
    <vehicle id="17" depart="18.70">
        <route edges="gneE3 -gneE2"/>
    </vehicle>
    <vehicle id="19" depart="20.90">
        <route edges="gneE2 -gneE1"/>
    </vehicle>
    <vehicle id="20" depart="22.00">
        <route edges="gneE3 -gneE1"/>
    </vehicle>
    <vehicle id="21" depart="23.10">
        <route edges="gneE3 -gneE2"/>
    </vehicle>
    <vehicle id="22" depart="24.20">
        <route edges="gneE2 -gneE1"/>
    </vehicle>
    <vehicle id="25" depart="27.50">
        <route edges="gneE1 -gneE2"/>
    </vehicle>
    <vehicle id="26" depart="28.60">
        <route edges="gneE3 -gneE1"/>
    </vehicle>
    <vehicle id="28" depart="30.80">
        <route edges="gneE2 -gneE1"/>
    </vehicle>
    <vehicle id="29" depart="31.90">
        <route edges="gneE3 -gneE1"/>
    </vehicle>
    <vehicle id="30" depart="33.00">
        <route edges="gneE2 -gneE1"/>
    </vehicle>
    <vehicle id="32" depart="35.20">
        <route edges="gneE3 -gneE1"/>
    </vehicle>
    <vehicle id="33" depart="36.30">
        <route edges="gneE2 -gneE1"/>
    </vehicle>
    <vehicle id="34" depart="37.40">
        <route edges="gneE3 -gneE2"/>
    </vehicle>
    <vehicle id="35" depart="38.50">
        <route edges="gneE3 -gneE1"/>
    </vehicle>
    <vehicle id="36" depart="39.60">
        <route edges="gneE3 -gneE2"/>
    </vehicle>
    <vehicle id="38" depart="41.80">
        <route edges="gneE2 -gneE1"/>
    </vehicle>
    <vehicle id="40" depart="44.00">
        <route edges="gneE2 -gneE1"/>
    </vehicle>
    <vehicle id="41" depart="45.10">
        <route edges="gneE1 -gneE2"/>
    </vehicle>
    <vehicle id="42" depart="46.20">
        <route edges="gneE3 -gneE2"/>
    </vehicle>
    <vehicle id="47" depart="51.70">
        <route edges="gneE1 -gneE2"/>
    </vehicle>
    <vehicle id="48" depart="52.80">
        <route edges="gneE3 -gneE1"/>
    </vehicle>
    <vehicle id="49" depart="53.90">
        <route edges="gneE2 -gneE1"/>
    </vehicle>
    <vehicle id="51" depart="56.10">
        <route edges="gneE1 -gneE2"/>
    </vehicle>
    <vehicle id="52" depart="57.20">
        <route edges="gneE1 -gneE2"/>
    </vehicle>
    <vehicle id="53" depart="58.30">
        <route edges="gneE3 -gneE1"/>
    </vehicle>
    <vehicle id="55" depart="60.50">
        <route edges="gneE3 -gneE2"/>
    </vehicle>
    <vehicle id="56" depart="61.60">
        <route edges="gneE3 -gneE1"/>
    </vehicle>
    <vehicle id="57" depart="62.70">
        <route edges="gneE2 -gneE1"/>
    </vehicle>
    <vehicle id="58" depart="63.80">
        <route edges="gneE1 -gneE2"/>
    </vehicle>
    <vehicle id="59" depart="64.90">
        <route edges="gneE3 -gneE1"/>
    </vehicle>
    <vehicle id="60" depart="66.00">
        <route edges="gneE3 -gneE1"/>
    </vehicle>
    <vehicle id="61" depart="67.10">
        <route edges="gneE1 -gneE2"/>
    </vehicle>
    <vehicle id="63" depart="69.30">
        <route edges="gneE1 -gneE2"/>
    </vehicle>
    <vehicle id="64" depart="70.40">
        <route edges="gneE2 -gneE1"/>
    </vehicle>
    <vehicle id="67" depart="73.70">
        <route edges="gneE3 -gneE2"/>
    </vehicle>
    <vehicle id="68" depart="74.80">
        <route edges="gneE3 -gneE2"/>
    </vehicle>
    <vehicle id="69" depart="75.90">
        <route edges="gneE1 -gneE2"/>
    </vehicle>
    <vehicle id="72" depart="79.20">
        <route edges="gneE1 -gneE2"/>
    </vehicle>
    <vehicle id="73" depart="80.30">
        <route edges="gneE1 -gneE2"/>
    </vehicle>
    <vehicle id="74" depart="81.40">
        <route edges="gneE3 -gneE2"/>
    </vehicle>
    <vehicle id="75" depart="82.50">
        <route edges="gneE2 -gneE1"/>
    </vehicle>
    <vehicle id="77" depart="84.70">
        <route edges="gneE2 -gneE1"/>
    </vehicle>
    <vehicle id="78" depart="85.80">
        <route edges="gneE2 -gneE1"/>
    </vehicle>
    <vehicle id="79" depart="86.90">
        <route edges="gneE2 -gneE1"/>
    </vehicle>
    <vehicle id="81" depart="89.10">
        <route edges="gneE2 -gneE1"/>
    </vehicle>
    <vehicle id="82" depart="90.20">
        <route edges="gneE3 -gneE2"/>
    </vehicle>
    <vehicle id="83" depart="91.30">
        <route edges="gneE3 -gneE2"/>
    </vehicle>
    <vehicle id="84" depart="92.40">
        <route edges="gneE1 -gneE2"/>
    </vehicle>
    <vehicle id="85" depart="93.50">
        <route edges="gneE2 -gneE1"/>
    </vehicle>
    <vehicle id="86" depart="94.60">
        <route edges="gneE1 -gneE2"/>
    </vehicle>
    <vehicle id="87" depart="95.70">
        <route edges="gneE3 -gneE2"/>
    </vehicle>
    <vehicle id="88" depart="96.80">
        <route edges="gneE2 -gneE1"/>
    </vehicle>
    <vehicle id="90" depart="99.00">
        <route edges="gneE1 -gneE2"/>
    </vehicle>
    <vehicle id="93" depart="102.30">
        <route edges="gneE3 -gneE2"/>
    </vehicle>
    <vehicle id="95" depart="104.50">
        <route edges="gneE3 -gneE1"/>
    </vehicle>
    <vehicle id="96" depart="105.60">
        <route edges="gneE3 -gneE1"/>
    </vehicle>
    <vehicle id="97" depart="106.70">
        <route edges="gneE1 -gneE2"/>
    </vehicle>
    <vehicle id="98" depart="107.80">
        <route edges="gneE1 -gneE2"/>
    </vehicle>
    <vehicle id="99" depart="108.90">
        <route edges="gneE3 -gneE2"/>
    </vehicle>
    <vehicle id="100" depart="110.00">
        <route edges="gneE2 -gneE1"/>
    </vehicle>
    <vehicle id="101" depart="111.10">
        <route edges="gneE3 -gneE2"/>
    </vehicle>
    <vehicle id="102" depart="112.20">
        <route edges="gneE3 -gneE2"/>
    </vehicle>
    <vehicle id="103" depart="113.30">
        <route edges="gneE2 -gneE1"/>
    </vehicle>
    <vehicle id="104" depart="114.40">
        <route edges="gneE2 -gneE1"/>
    </vehicle>
    <vehicle id="106" depart="116.60">
        <route edges="gneE3 -gneE2"/>
    </vehicle>
    <vehicle id="107" depart="117.70">
        <route edges="gneE2 -gneE1"/>
    </vehicle>
    <vehicle id="108" depart="118.80">
        <route edges="gneE3 -gneE1"/>
    </vehicle>
    <vehicle id="109" depart="119.90">
        <route edges="gneE3 -gneE1"/>
    </vehicle>
    <vehicle id="110" depart="121.00">
        <route edges="gneE1 -gneE2"/>
    </vehicle>
    <vehicle id="111" depart="122.10">
        <route edges="gneE3 -gneE2"/>
    </vehicle>
    <vehicle id="112" depart="123.20">
        <route edges="gneE2 -gneE1"/>
    </vehicle>
    <vehicle id="113" depart="124.30">
        <route edges="gneE3 -gneE2"/>
    </vehicle>
    <vehicle id="115" depart="126.50">
        <route edges="gneE3 -gneE1"/>
    </vehicle>
    <vehicle id="116" depart="127.60">
        <route edges="gneE1 -gneE2"/>
    </vehicle>
    <vehicle id="117" depart="128.70">
        <route edges="gneE3 -gneE1"/>
    </vehicle>
    <vehicle id="118" depart="129.80">
        <route edges="gneE3 -gneE1"/>
    </vehicle>
    <vehicle id="119" depart="130.90">
        <route edges="gneE2 -gneE1"/>
    </vehicle>
    <vehicle id="120" depart="132.00">
        <route edges="gneE3 -gneE1"/>
    </vehicle>
    <vehicle id="124" depart="136.40">
        <route edges="gneE3 -gneE1"/>
    </vehicle>
    <vehicle id="126" depart="138.60">
        <route edges="gneE3 -gneE1"/>
    </vehicle>
    <vehicle id="127" depart="139.70">
        <route edges="gneE3 -gneE2"/>
    </vehicle>
    <vehicle id="128" depart="140.80">
        <route edges="gneE1 -gneE2"/>
    </vehicle>
    <vehicle id="131" depart="144.10">
        <route edges="gneE3 -gneE1"/>
    </vehicle>
    <vehicle id="132" depart="145.20">
        <route edges="gneE2 -gneE1"/>
    </vehicle>
    <vehicle id="133" depart="146.30">
        <route edges="gneE3 -gneE1"/>
    </vehicle>
    <vehicle id="135" depart="148.50">
        <route edges="gneE3 -gneE2"/>
    </vehicle>
    <vehicle id="136" depart="149.60">
        <route edges="gneE3 -gneE2"/>
    </vehicle>
    <vehicle id="137" depart="150.70">
        <route edges="gneE1 -gneE2"/>
    </vehicle>
    <vehicle id="139" depart="152.90">
        <route edges="gneE2 -gneE1"/>
    </vehicle>
    <vehicle id="140" depart="154.00">
        <route edges="gneE3 -gneE1"/>
    </vehicle>
    <vehicle id="141" depart="155.10">
        <route edges="gneE1 -gneE2"/>
    </vehicle>
    <vehicle id="142" depart="156.20">
        <route edges="gneE1 -gneE2"/>
    </vehicle>
    <vehicle id="143" depart="157.30">
        <route edges="gneE2 -gneE1"/>
    </vehicle>
    <vehicle id="146" depart="160.60">
        <route edges="gneE3 -gneE2"/>
    </vehicle>
    <vehicle id="147" depart="161.70">
        <route edges="gneE2 -gneE1"/>
    </vehicle>
    <vehicle id="148" depart="162.80">
        <route edges="gneE1 -gneE2"/>
    </vehicle>
    <vehicle id="150" depart="165.00">
        <route edges="gneE2 -gneE1"/>
    </vehicle>
    <vehicle id="151" depart="166.10">
        <route edges="gneE2 -gneE1"/>
    </vehicle>
    <vehicle id="155" depart="170.50">
        <route edges="gneE3 -gneE2"/>
    </vehicle>
    <vehicle id="158" depart="173.80">
        <route edges="gneE3 -gneE1"/>
    </vehicle>
    <vehicle id="159" depart="174.90">
        <route edges="gneE1 -gneE2"/>
    </vehicle>
    <vehicle id="161" depart="177.10">
        <route edges="gneE1 -gneE2"/>
    </vehicle>
    <vehicle id="166" depart="182.60">
        <route edges="gneE1 -gneE2"/>
    </vehicle>
    <vehicle id="169" depart="185.90">
        <route edges="gneE2 -gneE1"/>
    </vehicle>
    <vehicle id="170" depart="187.00">
        <route edges="gneE3 -gneE1"/>
    </vehicle>
    <vehicle id="172" depart="189.20">
        <route edges="gneE1 -gneE2"/>
    </vehicle>
    <vehicle id="176" depart="193.60">
        <route edges="gneE3 -gneE1"/>
    </vehicle>
    <vehicle id="179" depart="196.90">
        <route edges="gneE3 -gneE2"/>
    </vehicle>
    <vehicle id="180" depart="198.00">
        <route edges="gneE1 -gneE2"/>
    </vehicle>
    <vehicle id="181" depart="199.10">
        <route edges="gneE1 -gneE2"/>
    </vehicle>
    <vehicle id="182" depart="200.20">
        <route edges="gneE3 -gneE2"/>
    </vehicle>
    <vehicle id="185" depart="203.50">
        <route edges="gneE3 -gneE1"/>
    </vehicle>
    <vehicle id="186" depart="204.60">
        <route edges="gneE2 -gneE1"/>
    </vehicle>
    <vehicle id="187" depart="205.70">
        <route edges="gneE3 -gneE2"/>
    </vehicle>
    <vehicle id="189" depart="207.90">
        <route edges="gneE2 -gneE1"/>
    </vehicle>
    <vehicle id="193" depart="212.30">
        <route edges="gneE2 -gneE1"/>
    </vehicle>
    <vehicle id="194" depart="213.40">
        <route edges="gneE3 -gneE2"/>
    </vehicle>
    <vehicle id="196" depart="215.60">
        <route edges="gneE2 -gneE1"/>
    </vehicle>
    <vehicle id="199" depart="218.90">
        <route edges="gneE2 -gneE1"/>
    </vehicle>
    <vehicle id="200" depart="220.00">
        <route edges="gneE2 -gneE1"/>
    </vehicle>
    <vehicle id="201" depart="221.10">
        <route edges="gneE3 -gneE2"/>
    </vehicle>
    <vehicle id="202" depart="222.20">
        <route edges="gneE3 -gneE1"/>
    </vehicle>
    <vehicle id="203" depart="223.30">
        <route edges="gneE3 -gneE1"/>
    </vehicle>
    <vehicle id="204" depart="224.40">
        <route edges="gneE2 -gneE1"/>
    </vehicle>
    <vehicle id="206" depart="226.60">
        <route edges="gneE2 -gneE1"/>
    </vehicle>
    <vehicle id="208" depart="228.80">
        <route edges="gneE3 -gneE1"/>
    </vehicle>
    <vehicle id="209" depart="229.90">
        <route edges="gneE2 -gneE1"/>
    </vehicle>
    <vehicle id="210" depart="231.00">
        <route edges="gneE1 -gneE2"/>
    </vehicle>
    <vehicle id="211" depart="232.10">
        <route edges="gneE3 -gneE2"/>
    </vehicle>
    <vehicle id="214" depart="235.40">
        <route edges="gneE1 -gneE2"/>
    </vehicle>
    <vehicle id="215" depart="236.50">
        <route edges="gneE3 -gneE1"/>
    </vehicle>
    <vehicle id="218" depart="239.80">
        <route edges="gneE3 -gneE2"/>
    </vehicle>
    <vehicle id="219" depart="240.90">
        <route edges="gneE3 -gneE2"/>
    </vehicle>
    <vehicle id="222" depart="244.20">
        <route edges="gneE3 -gneE2"/>
    </vehicle>
    <vehicle id="223" depart="245.30">
        <route edges="gneE3 -gneE1"/>
    </vehicle>
    <vehicle id="224" depart="246.40">
        <route edges="gneE2 -gneE1"/>
    </vehicle>
    <vehicle id="225" depart="247.50">
        <route edges="gneE3 -gneE2"/>
    </vehicle>
    <vehicle id="227" depart="249.70">
        <route edges="gneE1 -gneE2"/>
    </vehicle>
    <vehicle id="228" depart="250.80">
        <route edges="gneE2 -gneE1"/>
    </vehicle>
    <vehicle id="229" depart="251.90">
        <route edges="gneE1 -gneE2"/>
    </vehicle>
    <vehicle id="230" depart="253.00">
        <route edges="gneE2 -gneE1"/>
    </vehicle>
    <vehicle id="231" depart="254.10">
        <route edges="gneE1 -gneE2"/>
    </vehicle>
    <vehicle id="232" depart="255.20">
        <route edges="gneE3 -gneE2"/>
    </vehicle>
    <vehicle id="234" depart="257.40">
        <route edges="gneE3 -gneE2"/>
    </vehicle>
    <vehicle id="236" depart="259.60">
        <route edges="gneE1 -gneE2"/>
    </vehicle>
    <vehicle id="237" depart="260.70">
        <route edges="gneE3 -gneE1"/>
    </vehicle>
    <vehicle id="238" depart="261.80">
        <route edges="gneE3 -gneE2"/>
    </vehicle>
    <vehicle id="239" depart="262.90">
        <route edges="gneE3 -gneE1"/>
    </vehicle>
    <vehicle id="241" depart="265.10">
        <route edges="gneE2 -gneE1"/>
    </vehicle>
    <vehicle id="242" depart="266.20">
        <route edges="gneE1 -gneE2"/>
    </vehicle>
    <vehicle id="243" depart="267.30">
        <route edges="gneE3 -gneE2"/>
    </vehicle>
    <vehicle id="244" depart="268.40">
        <route edges="gneE2 -gneE1"/>
    </vehicle>
    <vehicle id="245" depart="269.50">
        <route edges="gneE3 -gneE2"/>
    </vehicle>
    <vehicle id="246" depart="270.60">
        <route edges="gneE3 -gneE1"/>
    </vehicle>
    <vehicle id="248" depart="272.80">
        <route edges="gneE3 -gneE1"/>
    </vehicle>
    <vehicle id="251" depart="276.10">
        <route edges="gneE2 -gneE1"/>
    </vehicle>
    <vehicle id="255" depart="280.50">
        <route edges="gneE1 -gneE2"/>
    </vehicle>
    <vehicle id="257" depart="282.70">
        <route edges="gneE3 -gneE1"/>
    </vehicle>
    <vehicle id="260" depart="286.00">
        <route edges="gneE3 -gneE2"/>
    </vehicle>
    <vehicle id="261" depart="287.10">
        <route edges="gneE2 -gneE1"/>
    </vehicle>
    <vehicle id="267" depart="293.70">
        <route edges="gneE3 -gneE2"/>
    </vehicle>
    <vehicle id="270" depart="297.00">
        <route edges="gneE1 -gneE2"/>
    </vehicle>
    <vehicle id="271" depart="298.10">
        <route edges="gneE2 -gneE1"/>
    </vehicle>
    <vehicle id="272" depart="299.20">
        <route edges="gneE3 -gneE1"/>
    </vehicle>
    <vehicle id="273" depart="300.30">
        <route edges="gneE3 -gneE1"/>
    </vehicle>
    <vehicle id="277" depart="304.70">
        <route edges="gneE1 -gneE2"/>
    </vehicle>
    <vehicle id="278" depart="305.80">
        <route edges="gneE3 -gneE2"/>
    </vehicle>
    <vehicle id="280" depart="308.00">
        <route edges="gneE3 -gneE2"/>
    </vehicle>
    <vehicle id="281" depart="309.10">
        <route edges="gneE3 -gneE2"/>
    </vehicle>
    <vehicle id="282" depart="310.20">
        <route edges="gneE3 -gneE2"/>
    </vehicle>
    <vehicle id="283" depart="311.30">
        <route edges="gneE2 -gneE1"/>
    </vehicle>
    <vehicle id="284" depart="312.40">
        <route edges="gneE1 -gneE2"/>
    </vehicle>
    <vehicle id="285" depart="313.50">
        <route edges="gneE1 -gneE2"/>
    </vehicle>
    <vehicle id="286" depart="314.60">
        <route edges="gneE3 -gneE1"/>
    </vehicle>
    <vehicle id="287" depart="315.70">
        <route edges="gneE1 -gneE2"/>
    </vehicle>
    <vehicle id="288" depart="316.80">
        <route edges="gneE2 -gneE1"/>
    </vehicle>
    <vehicle id="289" depart="317.90">
        <route edges="gneE3 -gneE1"/>
    </vehicle>
    <vehicle id="291" depart="320.10">
        <route edges="gneE1 -gneE2"/>
    </vehicle>
    <vehicle id="293" depart="322.30">
        <route edges="gneE3 -gneE1"/>
    </vehicle>
    <vehicle id="295" depart="324.50">
        <route edges="gneE1 -gneE2"/>
    </vehicle>
    <vehicle id="296" depart="325.60">
        <route edges="gneE3 -gneE1"/>
    </vehicle>
    <vehicle id="299" depart="328.90">
        <route edges="gneE1 -gneE2"/>
    </vehicle>
    <vehicle id="301" depart="331.10">
        <route edges="gneE3 -gneE2"/>
    </vehicle>
    <vehicle id="304" depart="334.40">
        <route edges="gneE3 -gneE1"/>
    </vehicle>
    <vehicle id="305" depart="335.50">
        <route edges="gneE3 -gneE1"/>
    </vehicle>
    <vehicle id="306" depart="336.60">
        <route edges="gneE3 -gneE1"/>
    </vehicle>
    <vehicle id="309" depart="339.90">
        <route edges="gneE3 -gneE2"/>
    </vehicle>
    <vehicle id="310" depart="341.00">
        <route edges="gneE3 -gneE2"/>
    </vehicle>
    <vehicle id="311" depart="342.10">
        <route edges="gneE3 -gneE1"/>
    </vehicle>
    <vehicle id="312" depart="343.20">
        <route edges="gneE1 -gneE2"/>
    </vehicle>
    <vehicle id="314" depart="345.40">
        <route edges="gneE1 -gneE2"/>
    </vehicle>
    <vehicle id="317" depart="348.70">
        <route edges="gneE3 -gneE1"/>
    </vehicle>
    <vehicle id="318" depart="349.80">
        <route edges="gneE1 -gneE2"/>
    </vehicle>
    <vehicle id="319" depart="350.90">
        <route edges="gneE1 -gneE2"/>
    </vehicle>
    <vehicle id="320" depart="352.00">
        <route edges="gneE2 -gneE1"/>
    </vehicle>
    <vehicle id="321" depart="353.10">
        <route edges="gneE3 -gneE1"/>
    </vehicle>
    <vehicle id="322" depart="354.20">
        <route edges="gneE3 -gneE2"/>
    </vehicle>
    <vehicle id="325" depart="357.50">
        <route edges="gneE3 -gneE2"/>
    </vehicle>
    <vehicle id="326" depart="358.60">
        <route edges="gneE3 -gneE2"/>
    </vehicle>
    <vehicle id="328" depart="360.80">
        <route edges="gneE3 -gneE1"/>
    </vehicle>
    <vehicle id="330" depart="363.00">
        <route edges="gneE3 -gneE1"/>
    </vehicle>
    <vehicle id="331" depart="364.10">
        <route edges="gneE3 -gneE2"/>
    </vehicle>
    <vehicle id="332" depart="365.20">
        <route edges="gneE3 -gneE1"/>
    </vehicle>
    <vehicle id="334" depart="367.40">
        <route edges="gneE3 -gneE1"/>
    </vehicle>
    <vehicle id="335" depart="368.50">
        <route edges="gneE2 -gneE1"/>
    </vehicle>
    <vehicle id="336" depart="369.60">
        <route edges="gneE2 -gneE1"/>
    </vehicle>
    <vehicle id="338" depart="371.80">
        <route edges="gneE3 -gneE2"/>
    </vehicle>
    <vehicle id="339" depart="372.90">
        <route edges="gneE1 -gneE2"/>
    </vehicle>
    <vehicle id="342" depart="376.20">
        <route edges="gneE1 -gneE2"/>
    </vehicle>
    <vehicle id="345" depart="379.50">
        <route edges="gneE1 -gneE2"/>
    </vehicle>
    <vehicle id="347" depart="381.70">
        <route edges="gneE1 -gneE2"/>
    </vehicle>
    <vehicle id="349" depart="383.90">
        <route edges="gneE3 -gneE2"/>
    </vehicle>
    <vehicle id="350" depart="385.00">
        <route edges="gneE3 -gneE2"/>
    </vehicle>
    <vehicle id="351" depart="386.10">
        <route edges="gneE2 -gneE1"/>
    </vehicle>
    <vehicle id="352" depart="387.20">
        <route edges="gneE3 -gneE1"/>
    </vehicle>
    <vehicle id="355" depart="390.50">
        <route edges="gneE3 -gneE1"/>
    </vehicle>
    <vehicle id="358" depart="393.80">
        <route edges="gneE3 -gneE2"/>
    </vehicle>
    <vehicle id="361" depart="397.10">
        <route edges="gneE1 -gneE2"/>
    </vehicle>
    <vehicle id="362" depart="398.20">
        <route edges="gneE3 -gneE2"/>
    </vehicle>
    <vehicle id="363" depart="399.30">
        <route edges="gneE3 -gneE2"/>
    </vehicle>
    <vehicle id="364" depart="400.40">
        <route edges="gneE3 -gneE1"/>
    </vehicle>
    <vehicle id="365" depart="401.50">
        <route edges="gneE3 -gneE2"/>
    </vehicle>
    <vehicle id="366" depart="402.60">
        <route edges="gneE3 -gneE2"/>
    </vehicle>
    <vehicle id="367" depart="403.70">
        <route edges="gneE1 -gneE2"/>
    </vehicle>
    <vehicle id="368" depart="404.80">
        <route edges="gneE3 -gneE2"/>
    </vehicle>
    <vehicle id="371" depart="408.10">
        <route edges="gneE1 -gneE2"/>
    </vehicle>
    <vehicle id="373" depart="410.30">
        <route edges="gneE2 -gneE1"/>
    </vehicle>
    <vehicle id="375" depart="412.50">
        <route edges="gneE2 -gneE1"/>
    </vehicle>
    <vehicle id="377" depart="414.70">
        <route edges="gneE1 -gneE2"/>
    </vehicle>
    <vehicle id="383" depart="421.30">
        <route edges="gneE2 -gneE1"/>
    </vehicle>
    <vehicle id="384" depart="422.40">
        <route edges="gneE2 -gneE1"/>
    </vehicle>
    <vehicle id="385" depart="423.50">
        <route edges="gneE2 -gneE1"/>
    </vehicle>
    <vehicle id="387" depart="425.70">
        <route edges="gneE3 -gneE1"/>
    </vehicle>
    <vehicle id="388" depart="426.80">
        <route edges="gneE3 -gneE1"/>
    </vehicle>
    <vehicle id="389" depart="427.90">
        <route edges="gneE2 -gneE1"/>
    </vehicle>
    <vehicle id="390" depart="429.00">
        <route edges="gneE3 -gneE2"/>
    </vehicle>
    <vehicle id="391" depart="430.10">
        <route edges="gneE1 -gneE2"/>
    </vehicle>
    <vehicle id="392" depart="431.20">
        <route edges="gneE3 -gneE2"/>
    </vehicle>
    <vehicle id="394" depart="433.40">
        <route edges="gneE3 -gneE2"/>
    </vehicle>
    <vehicle id="397" depart="436.70">
        <route edges="gneE3 -gneE1"/>
    </vehicle>
    <vehicle id="401" depart="441.10">
        <route edges="gneE3 -gneE1"/>
    </vehicle>
    <vehicle id="402" depart="442.20">
        <route edges="gneE3 -gneE2"/>
    </vehicle>
    <vehicle id="403" depart="443.30">
        <route edges="gneE3 -gneE1"/>
    </vehicle>
    <vehicle id="404" depart="444.40">
        <route edges="gneE3 -gneE1"/>
    </vehicle>
    <vehicle id="405" depart="445.50">
        <route edges="gneE3 -gneE1"/>
    </vehicle>
    <vehicle id="406" depart="446.60">
        <route edges="gneE3 -gneE2"/>
    </vehicle>
    <vehicle id="407" depart="447.70">
        <route edges="gneE1 -gneE2"/>
    </vehicle>
    <vehicle id="408" depart="448.80">
        <route edges="gneE2 -gneE1"/>
    </vehicle>
    <vehicle id="409" depart="449.90">
        <route edges="gneE1 -gneE2"/>
    </vehicle>
    <vehicle id="413" depart="454.30">
        <route edges="gneE1 -gneE2"/>
    </vehicle>
    <vehicle id="414" depart="455.40">
        <route edges="gneE3 -gneE1"/>
    </vehicle>
    <vehicle id="416" depart="457.60">
        <route edges="gneE3 -gneE1"/>
    </vehicle>
    <vehicle id="417" depart="458.70">
        <route edges="gneE3 -gneE1"/>
    </vehicle>
    <vehicle id="418" depart="459.80">
        <route edges="gneE3 -gneE1"/>
    </vehicle>
    <vehicle id="419" depart="460.90">
        <route edges="gneE2 -gneE1"/>
    </vehicle>
    <vehicle id="421" depart="463.10">
        <route edges="gneE2 -gneE1"/>
    </vehicle>
    <vehicle id="422" depart="464.20">
        <route edges="gneE3 -gneE1"/>
    </vehicle>
    <vehicle id="426" depart="468.60">
        <route edges="gneE3 -gneE2"/>
    </vehicle>
    <vehicle id="430" depart="473.00">
        <route edges="gneE3 -gneE1"/>
    </vehicle>
    <vehicle id="431" depart="474.10">
        <route edges="gneE3 -gneE2"/>
    </vehicle>
    <vehicle id="434" depart="477.40">
        <route edges="gneE3 -gneE1"/>
    </vehicle>
    <vehicle id="435" depart="478.50">
        <route edges="gneE3 -gneE2"/>
    </vehicle>
    <vehicle id="436" depart="479.60">
        <route edges="gneE2 -gneE1"/>
    </vehicle>
    <vehicle id="438" depart="481.80">
        <route edges="gneE3 -gneE1"/>
    </vehicle>
    <vehicle id="439" depart="482.90">
        <route edges="gneE1 -gneE2"/>
    </vehicle>
    <vehicle id="442" depart="486.20">
        <route edges="gneE2 -gneE1"/>
    </vehicle>
    <vehicle id="443" depart="487.30">
        <route edges="gneE3 -gneE2"/>
    </vehicle>
    <vehicle id="444" depart="488.40">
        <route edges="gneE3 -gneE2"/>
    </vehicle>
    <vehicle id="447" depart="491.70">
        <route edges="gneE3 -gneE2"/>
    </vehicle>
    <vehicle id="450" depart="495.00">
        <route edges="gneE3 -gneE1"/>
    </vehicle>
    <vehicle id="453" depart="498.30">
        <route edges="gneE2 -gneE1"/>
    </vehicle>
    <vehicle id="459" depart="504.90">
        <route edges="gneE1 -gneE2"/>
    </vehicle>
    <vehicle id="460" depart="506.00">
        <route edges="gneE1 -gneE2"/>
    </vehicle>
    <vehicle id="461" depart="507.10">
        <route edges="gneE3 -gneE2"/>
    </vehicle>
    <vehicle id="466" depart="512.60">
        <route edges="gneE3 -gneE2"/>
    </vehicle>
    <vehicle id="467" depart="513.70">
        <route edges="gneE2 -gneE1"/>
    </vehicle>
    <vehicle id="468" depart="514.80">
        <route edges="gneE3 -gneE1"/>
    </vehicle>
    <vehicle id="469" depart="515.90">
        <route edges="gneE1 -gneE2"/>
    </vehicle>
    <vehicle id="470" depart="517.00">
        <route edges="gneE2 -gneE1"/>
    </vehicle>
    <vehicle id="471" depart="518.10">
        <route edges="gneE2 -gneE1"/>
    </vehicle>
    <vehicle id="472" depart="519.20">
        <route edges="gneE3 -gneE1"/>
    </vehicle>
    <vehicle id="473" depart="520.30">
        <route edges="gneE3 -gneE2"/>
    </vehicle>
    <vehicle id="474" depart="521.40">
        <route edges="gneE3 -gneE1"/>
    </vehicle>
    <vehicle id="475" depart="522.50">
        <route edges="gneE3 -gneE2"/>
    </vehicle>
    <vehicle id="476" depart="523.60">
        <route edges="gneE3 -gneE1"/>
    </vehicle>
    <vehicle id="478" depart="525.80">
        <route edges="gneE3 -gneE2"/>
    </vehicle>
    <vehicle id="479" depart="526.90">
        <route edges="gneE1 -gneE2"/>
    </vehicle>
    <vehicle id="480" depart="528.00">
        <route edges="gneE2 -gneE1"/>
    </vehicle>
    <vehicle id="482" depart="530.20">
        <route edges="gneE1 -gneE2"/>
    </vehicle>
    <vehicle id="483" depart="531.30">
        <route edges="gneE3 -gneE1"/>
    </vehicle>
    <vehicle id="485" depart="533.50">
        <route edges="gneE1 -gneE2"/>
    </vehicle>
    <vehicle id="486" depart="534.60">
        <route edges="gneE2 -gneE1"/>
    </vehicle>
    <vehicle id="490" depart="539.00">
        <route edges="gneE1 -gneE2"/>
    </vehicle>
    <vehicle id="491" depart="540.10">
        <route edges="gneE3 -gneE2"/>
    </vehicle>
    <vehicle id="492" depart="541.20">
        <route edges="gneE3 -gneE1"/>
    </vehicle>
    <vehicle id="493" depart="542.30">
        <route edges="gneE1 -gneE2"/>
    </vehicle>
    <vehicle id="495" depart="544.50">
        <route edges="gneE3 -gneE1"/>
    </vehicle>
    <vehicle id="496" depart="545.60">
        <route edges="gneE3 -gneE2"/>
    </vehicle>
    <vehicle id="497" depart="546.70">
        <route edges="gneE3 -gneE1"/>
    </vehicle>
    <vehicle id="498" depart="547.80">
        <route edges="gneE3 -gneE1"/>
    </vehicle>
    <vehicle id="499" depart="548.90">
        <route edges="gneE3 -gneE2"/>
    </vehicle>
    <vehicle id="500" depart="550.00">
        <route edges="gneE2 -gneE1"/>
    </vehicle>
    <vehicle id="501" depart="551.10">
        <route edges="gneE1 -gneE2"/>
    </vehicle>
    <vehicle id="503" depart="553.30">
        <route edges="gneE2 -gneE1"/>
    </vehicle>
    <vehicle id="505" depart="555.50">
        <route edges="gneE3 -gneE1"/>
    </vehicle>
    <vehicle id="506" depart="556.60">