<?xml version="1.0" encoding="UTF-8"?>

<!-- generated on Sun May  6 19:02:41 2018 by SUMO duarouter Version 0.30.0
<?xml version="1.0" encoding="UTF-8"?>

<configuration xmlns:xsi="http://www.w3.org/2001/XMLSchema-instance" xsi:noNamespaceSchemaLocation="http://sumo.dlr.de/xsd/duarouterConfiguration.xsd">

    <input>
        <net-file value="simple_T/simple_T.net.xml"/>
        <route-files value="trips.trips.xml"/>
    </input>

    <output>
        <output-file value="simple_T/route/simple_T-1.5-3.rou.xml"/>
    </output>

    <processing>
        <ignore-errors value="true"/>
    </processing>

    <time>
        <begin value="0.0"/>
        <end value="1000.0"/>
    </time>

    <report>
        <no-warnings value="true"/>
        <no-step-log value="true"/>
    </report>

</configuration>
-->

<routes xmlns:xsi="http://www.w3.org/2001/XMLSchema-instance" xsi:noNamespaceSchemaLocation="http://sumo.dlr.de/xsd/routes_file.xsd">
    <vehicle id="1" depart="1.50">
        <route edges="gneE1 -gneE2"/>
    </vehicle>
    <vehicle id="4" depart="6.00">
        <route edges="gneE1 -gneE2"/>
    </vehicle>
    <vehicle id="6" depart="9.00">
        <route edges="gneE1 -gneE2"/>
    </vehicle>
    <vehicle id="7" depart="10.50">
        <route edges="gneE3 -gneE1"/>
    </vehicle>
    <vehicle id="8" depart="12.00">
        <route edges="gneE3 -gneE2"/>
    </vehicle>
    <vehicle id="9" depart="13.50">
        <route edges="gneE3 -gneE1"/>
    </vehicle>
    <vehicle id="10" depart="15.00">
        <route edges="gneE1 -gneE2"/>
    </vehicle>
    <vehicle id="12" depart="18.00">
        <route edges="gneE2 -gneE1"/>
    </vehicle>
    <vehicle id="13" depart="19.50">
        <route edges="gneE1 -gneE2"/>
    </vehicle>
    <vehicle id="14" depart="21.00">
        <route edges="gneE3 -gneE1"/>
    </vehicle>
    <vehicle id="15" depart="22.50">
        <route edges="gneE3 -gneE1"/>
    </vehicle>
    <vehicle id="16" depart="24.00">
        <route edges="gneE2 -gneE1"/>
    </vehicle>
    <vehicle id="17" depart="25.50">
        <route edges="gneE2 -gneE1"/>
    </vehicle>
    <vehicle id="19" depart="28.50">
        <route edges="gneE2 -gneE1"/>
    </vehicle>
    <vehicle id="21" depart="31.50">
        <route edges="gneE3 -gneE2"/>
    </vehicle>
    <vehicle id="23" depart="34.50">
        <route edges="gneE3 -gneE1"/>
    </vehicle>
    <vehicle id="25" depart="37.50">
        <route edges="gneE3 -gneE2"/>
    </vehicle>
    <vehicle id="26" depart="39.00">
        <route edges="gneE1 -gneE2"/>
    </vehicle>
    <vehicle id="27" depart="40.50">
        <route edges="gneE2 -gneE1"/>
    </vehicle>
    <vehicle id="28" depart="42.00">
        <route edges="gneE1 -gneE2"/>
    </vehicle>
    <vehicle id="29" depart="43.50">
        <route edges="gneE1 -gneE2"/>
    </vehicle>
    <vehicle id="30" depart="45.00">
        <route edges="gneE1 -gneE2"/>
    </vehicle>
    <vehicle id="31" depart="46.50">
        <route edges="gneE2 -gneE1"/>
    </vehicle>
    <vehicle id="33" depart="49.50">
        <route edges="gneE1 -gneE2"/>
    </vehicle>
    <vehicle id="34" depart="51.00">
        <route edges="gneE1 -gneE2"/>
    </vehicle>
    <vehicle id="35" depart="52.50">
        <route edges="gneE3 -gneE2"/>
    </vehicle>
    <vehicle id="36" depart="54.00">
        <route edges="gneE3 -gneE1"/>
    </vehicle>
    <vehicle id="37" depart="55.50">
        <route edges="gneE3 -gneE2"/>
    </vehicle>
    <vehicle id="38" depart="57.00">
        <route edges="gneE3 -gneE2"/>
    </vehicle>
    <vehicle id="40" depart="60.00">
        <route edges="gneE3 -gneE2"/>
    </vehicle>
    <vehicle id="41" depart="61.50">
        <route edges="gneE3 -gneE2"/>
    </vehicle>
    <vehicle id="42" depart="63.00">
        <route edges="gneE2 -gneE1"/>
    </vehicle>
    <vehicle id="43" depart="64.50">
        <route edges="gneE2 -gneE1"/>
    </vehicle>
    <vehicle id="44" depart="66.00">
        <route edges="gneE3 -gneE2"/>
    </vehicle>
    <vehicle id="45" depart="67.50">
        <route edges="gneE2 -gneE1"/>
    </vehicle>
    <vehicle id="46" depart="69.00">
        <route edges="gneE3 -gneE2"/>
    </vehicle>
    <vehicle id="47" depart="70.50">
        <route edges="gneE1 -gneE2"/>
    </vehicle>
    <vehicle id="49" depart="73.50">
        <route edges="gneE1 -gneE2"/>
    </vehicle>
    <vehicle id="50" depart="75.00">
        <route edges="gneE3 -gneE2"/>
    </vehicle>
    <vehicle id="51" depart="76.50">
        <route edges="gneE2 -gneE1"/>
    </vehicle>
    <vehicle id="52" depart="78.00">
        <route edges="gneE3 -gneE2"/>
    </vehicle>
    <vehicle id="53" depart="79.50">
        <route edges="gneE3 -gneE1"/>
    </vehicle>
    <vehicle id="54" depart="81.00">
        <route edges="gneE3 -gneE1"/>
    </vehicle>
    <vehicle id="55" depart="82.50">
        <route edges="gneE2 -gneE1"/>
    </vehicle>
    <vehicle id="58" depart="87.00">
        <route edges="gneE3 -gneE2"/>
    </vehicle>
    <vehicle id="59" depart="88.50">
        <route edges="gneE2 -gneE1"/>
    </vehicle>
    <vehicle id="62" depart="93.00">
        <route edges="gneE2 -gneE1"/>
    </vehicle>
    <vehicle id="64" depart="96.00">
        <route edges="gneE2 -gneE1"/>
    </vehicle>
    <vehicle id="67" depart="100.50">
        <route edges="gneE1 -gneE2"/>
    </vehicle>
    <vehicle id="68" depart="102.00">
        <route edges="gneE2 -gneE1"/>
    </vehicle>
    <vehicle id="70" depart="105.00">
        <route edges="gneE3 -gneE1"/>
    </vehicle>
    <vehicle id="73" depart="109.50">
        <route edges="gneE1 -gneE2"/>
    </vehicle>
    <vehicle id="74" depart="111.00">
        <route edges="gneE3 -gneE1"/>
    </vehicle>
    <vehicle id="75" depart="112.50">
        <route edges="gneE2 -gneE1"/>
    </vehicle>
    <vehicle id="76" depart="114.00">
        <route edges="gneE1 -gneE2"/>
    </vehicle>
    <vehicle id="78" depart="117.00">
        <route edges="gneE3 -gneE1"/>
    </vehicle>
    <vehicle id="79" depart="118.50">
        <route edges="gneE2 -gneE1"/>
    </vehicle>
    <vehicle id="80" depart="120.00">
        <route edges="gneE3 -gneE2"/>
    </vehicle>
    <vehicle id="81" depart="121.50">
        <route edges="gneE1 -gneE2"/>
    </vehicle>
    <vehicle id="82" depart="123.00">
        <route edges="gneE2 -gneE1"/>
    </vehicle>
    <vehicle id="83" depart="124.50">
        <route edges="gneE1 -gneE2"/>
    </vehicle>
    <vehicle id="84" depart="126.00">
        <route edges="gneE3 -gneE1"/>
    </vehicle>
    <vehicle id="85" depart="127.50">
        <route edges="gneE3 -gneE2"/>
    </vehicle>
    <vehicle id="86" depart="129.00">
        <route edges="gneE3 -gneE2"/>
    </vehicle>
    <vehicle id="87" depart="130.50">
        <route edges="gneE3 -gneE2"/>
    </vehicle>
    <vehicle id="90" depart="135.00">
        <route edges="gneE3 -gneE1"/>
    </vehicle>
    <vehicle id="93" depart="139.50">
        <route edges="gneE3 -gneE1"/>
    </vehicle>
    <vehicle id="94" depart="141.00">
        <route edges="gneE1 -gneE2"/>
    </vehicle>
    <vehicle id="95" depart="142.50">
        <route edges="gneE3 -gneE2"/>
    </vehicle>
    <vehicle id="98" depart="147.00">
        <route edges="gneE1 -gneE2"/>
    </vehicle>
    <vehicle id="99" depart="148.50">
        <route edges="gneE1 -gneE2"/>
    </vehicle>
    <vehicle id="100" depart="150.00">
        <route edges="gneE2 -gneE1"/>
    </vehicle>
    <vehicle id="101" depart="151.50">
        <route edges="gneE3 -gneE2"/>
    </vehicle>
    <vehicle id="102" depart="153.00">
        <route edges="gneE1 -gneE2"/>
    </vehicle>
    <vehicle id="104" depart="156.00">
        <route edges="gneE3 -gneE2"/>
    </vehicle>
    <vehicle id="107" depart="160.50">
        <route edges="gneE3 -gneE2"/>
    </vehicle>
    <vehicle id="111" depart="166.50">
        <route edges="gneE3 -gneE2"/>
    </vehicle>
    <vehicle id="112" depart="168.00">
        <route edges="gneE3 -gneE1"/>
    </vehicle>
    <vehicle id="113" depart="169.50">
        <route edges="gneE2 -gneE1"/>
    </vehicle>
    <vehicle id="115" depart="172.50">
        <route edges="gneE2 -gneE1"/>
    </vehicle>
    <vehicle id="116" depart="174.00">
        <route edges="gneE2 -gneE1"/>
    </vehicle>
    <vehicle id="117" depart="175.50">
        <route edges="gneE2 -gneE1"/>
    </vehicle>
    <vehicle id="118" depart="177.00">
        <route edges="gneE3 -gneE1"/>
    </vehicle>
    <vehicle id="119" depart="178.50">
        <route edges="gneE2 -gneE1"/>
    </vehicle>
    <vehicle id="123" depart="184.50">
        <route edges="gneE1 -gneE2"/>
    </vehicle>
    <vehicle id="124" depart="186.00">
        <route edges="gneE1 -gneE2"/>
    </vehicle>
    <vehicle id="125" depart="187.50">
        <route edges="gneE2 -gneE1"/>
    </vehicle>
    <vehicle id="126" depart="189.00">
        <route edges="gneE2 -gneE1"/>
    </vehicle>
    <vehicle id="128" depart="192.00">
        <route edges="gneE2 -gneE1"/>
    </vehicle>
    <vehicle id="129" depart="193.50">
        <route edges="gneE3 -gneE2"/>
    </vehicle>
    <vehicle id="132" depart="198.00">
        <route edges="gneE3 -gneE2"/>
    </vehicle>
    <vehicle id="133" depart="199.50">
        <route edges="gneE1 -gneE2"/>
    </vehicle>
    <vehicle id="134" depart="201.00">
        <route edges="gneE2 -gneE1"/>
    </vehicle>
    <vehicle id="135" depart="202.50">
        <route edges="gneE3 -gneE1"/>
    </vehicle>
    <vehicle id="137" depart="205.50">
        <route edges="gneE3 -gneE1"/>
    </vehicle>
    <vehicle id="138" depart="207.00">
        <route edges="gneE2 -gneE1"/>
    </vehicle>
    <vehicle id="142" depart="213.00">
        <route edges="gneE2 -gneE1"/>
    </vehicle>
    <vehicle id="144" depart="216.00">
        <route edges="gneE3 -gneE2"/>
    </vehicle>
    <vehicle id="145" depart="217.50">
        <route edges="gneE1 -gneE2"/>
    </vehicle>
    <vehicle id="147" depart="220.50">
        <route edges="gneE2 -gneE1"/>
    </vehicle>
    <vehicle id="148" depart="222.00">
        <route edges="gneE3 -gneE1"/>
    </vehicle>
    <vehicle id="152" depart="228.00">
        <route edges="gneE3 -gneE2"/>
    </vehicle>
    <vehicle id="153" depart="229.50">
        <route edges="gneE2 -gneE1"/>
    </vehicle>
    <vehicle id="156" depart="234.00">
        <route edges="gneE3 -gneE1"/>
    </vehicle>
    <vehicle id="157" depart="235.50">
        <route edges="gneE3 -gneE2"/>
    </vehicle>
    <vehicle id="158" depart="237.00">
        <route edges="gneE3 -gneE1"/>
    </vehicle>
    <vehicle id="160" depart="240.00">
        <route edges="gneE3 -gneE1"/>
    </vehicle>
    <vehicle id="161" depart="241.50">
        <route edges="gneE2 -gneE1"/>
    </vehicle>
    <vehicle id="162" depart="243.00">
        <route edges="gneE2 -gneE1"/>
    </vehicle>
    <vehicle id="164" depart="246.00">
        <route edges="gneE1 -gneE2"/>
    </vehicle>
    <vehicle id="165" depart="247.50">
        <route edges="gneE3 -gneE1"/>
    </vehicle>
    <vehicle id="166" depart="249.00">
        <route edges="gneE2 -gneE1"/>
    </vehicle>
    <vehicle id="167" depart="250.50">
        <route edges="gneE1 -gneE2"/>
    </vehicle>
    <vehicle id="168" depart="252.00">
        <route edges="gneE1 -gneE2"/>
    </vehicle>
    <vehicle id="172" depart="258.00">
        <route edges="gneE1 -gneE2"/>
    </vehicle>
    <vehicle id="173" depart="259.50">
        <route edges="gneE2 -gneE1"/>
    </vehicle>
    <vehicle id="174" depart="261.00">
        <route edges="gneE3 -gneE2"/>
    </vehicle>
    <vehicle id="175" depart="262.50">
        <route edges="gneE2 -gneE1"/>
    </vehicle>
    <vehicle id="176" depart="264.00">
        <route edges="gneE3 -gneE2"/>
    </vehicle>
    <vehicle id="177" depart="265.50">
        <route edges="gneE3 -gneE1"/>
    </vehicle>
    <vehicle id="179" depart="268.50">
        <route edges="gneE2 -gneE1"/>
    </vehicle>
    <vehicle id="180" depart="270.00">
        <route edges="gneE3 -gneE2"/>
    </vehicle>
    <vehicle id="181" depart="271.50">
        <route edges="gneE3 -gneE1"/>
    </vehicle>
    <vehicle id="183" depart="274.50">
        <route edges="gneE3 -gneE2"/>
    </vehicle>
    <vehicle id="184" depart="276.00">
        <route edges="gneE1 -gneE2"/>
    </vehicle>
    <vehicle id="185" depart="277.50">
        <route edges="gneE3 -gneE2"/>
    </vehicle>
    <vehicle id="190" depart="285.00">
        <route edges="gneE2 -gneE1"/>
    </vehicle>
    <vehicle id="191" depart="286.50">
        <route edges="gneE3 -gneE1"/>
    </vehicle>
    <vehicle id="192" depart="288.00">
        <route edges="gneE1 -gneE2"/>
    </vehicle>
    <vehicle id="193" depart="289.50">
        <route edges="gneE2 -gneE1"/>
    </vehicle>
    <vehicle id="194" depart="291.00">
        <route edges="gneE3 -gneE2"/>
    </vehicle>
    <vehicle id="196" depart="294.00">
        <route edges="gneE3 -gneE1"/>
    </vehicle>
    <vehicle id="199" depart="298.50">
        <route edges="gneE3 -gneE1"/>
    </vehicle>
    <vehicle id="200" depart="300.00">
        <route edges="gneE1 -gneE2"/>
    </vehicle>
    <vehicle id="203" depart="304.50">
        <route edges="gneE3 -gneE2"/>
    </vehicle>
    <vehicle id="204" depart="306.00">
        <route edges="gneE3 -gneE1"/>
    </vehicle>
    <vehicle id="205" depart="307.50">
        <route edges="gneE1 -gneE2"/>
    </vehicle>
    <vehicle id="208" depart="312.00">
        <route edges="gneE3 -gneE1"/>
    </vehicle>
    <vehicle id="211" depart="316.50">
        <route edges="gneE3 -gneE1"/>
    </vehicle>
    <vehicle id="217" depart="325.50">
        <route edges="gneE3 -gneE2"/>
    </vehicle>
    <vehicle id="218" depart="327.00">
        <route edges="gneE2 -gneE1"/>
    </vehicle>
    <vehicle id="219" depart="328.50">
        <route edges="gneE3 -gneE2"/>
    </vehicle>
    <vehicle id="220" depart="330.00">
        <route edges="gneE2 -gneE1"/>
    </vehicle>
    <vehicle id="221" depart="331.50">
        <route edges="gneE1 -gneE2"/>
    </vehicle>
    <vehicle id="222" depart="333.00">
        <route edges="gneE2 -gneE1"/>
    </vehicle>
    <vehicle id="225" depart="337.50">
        <route edges="gneE3 -gneE1"/>
    </vehicle>
    <vehicle id="227" depart="340.50">
        <route edges="gneE2 -gneE1"/>
    </vehicle>
    <vehicle id="231" depart="346.50">
        <route edges="gneE1 -gneE2"/>
    </vehicle>
    <vehicle id="232" depart="348.00">
        <route edges="gneE3 -gneE1"/>
    </vehicle>
    <vehicle id="233" depart="349.50">
        <route edges="gneE3 -gneE2"/>
    </vehicle>
    <vehicle id="234" depart="351.00">
        <route edges="gneE2 -gneE1"/>
    </vehicle>
    <vehicle id="235" depart="352.50">
        <route edges="gneE3 -gneE2"/>
    </vehicle>
    <vehicle id="236" depart="354.00">
        <route edges="gneE3 -gneE1"/>
    </vehicle>
    <vehicle id="237" depart="355.50">
        <route edges="gneE2 -gneE1"/>
    </vehicle>
    <vehicle id="240" depart="360.00">
        <route edges="gneE3 -gneE1"/>
    </vehicle>
    <vehicle id="241" depart="361.50">
        <route edges="gneE3 -gneE1"/>
    </vehicle>
    <vehicle id="242" depart="363.00">
        <route edges="gneE1 -gneE2"/>
    </vehicle>
    <vehicle id="245" depart="367.50">
        <route edges="gneE3 -gneE2"/>
    </vehicle>
    <vehicle id="246" depart="369.00">
        <route edges="gneE2 -gneE1"/>
    </vehicle>
    <vehicle id="247" depart="370.50">
        <route edges="gneE2 -gneE1"/>
    </vehicle>
    <vehicle id="248" depart="372.00">
        <route edges="gneE3 -gneE1"/>
    </vehicle>
    <vehicle id="250" depart="375.00">
        <route edges="gneE1 -gneE2"/>
    </vehicle>
    <vehicle id="252" depart="378.00">
        <route edges="gneE3 -gneE1"/>
    </vehicle>
    <vehicle id="253" depart="379.50">
        <route edges="gneE1 -gneE2"/>
    </vehicle>
    <vehicle id="254" depart="381.00">
        <route edges="gneE3 -gneE1"/>
    </vehicle>
    <vehicle id="255" depart="382.50">
        <route edges="gneE2 -gneE1"/>
    </vehicle>
    <vehicle id="256" depart="384.00">
        <route edges="gneE2 -gneE1"/>
    </vehicle>
    <vehicle id="259" depart="388.50">
        <route edges="gneE3 -gneE2"/>
    </vehicle>
    <vehicle id="261" depart="391.50">
        <route edges="gneE2 -gneE1"/>
    </vehicle>
    <vehicle id="262" depart="393.00">
        <route edges="gneE3 -gneE2"/>
    </vehicle>
    <vehicle id="265" depart="397.50">
        <route edges="gneE3 -gneE2"/>
    </vehicle>
    <vehicle id="267" depart="400.50">
        <route edges="gneE3 -gneE1"/>
    </vehicle>
    <vehicle id="268" depart="402.00">
        <route edges="gneE3 -gneE1"/>
    </vehicle>
    <vehicle id="270" depart="405.00">
        <route edges="gneE3 -gneE1"/>
    </vehicle>
    <vehicle id="273" depart="409.50">
        <route edges="gneE3 -gneE1"/>
    </vehicle>
    <vehicle id="274" depart="411.00">
        <route edges="gneE3 -gneE2"/>
    </vehicle>
    <vehicle id="275" depart="412.50">
        <route edges="gneE3 -gneE2"/>
    </vehicle>
    <vehicle id="277" depart="415.50">
        <route edges="gneE1 -gneE2"/>
    </vehicle>
    <vehicle id="278" depart="417.00">
        <route edges="gneE3 -gneE2"/>
    </vehicle>
    <vehicle id="279" depart="418.50">
        <route edges="gneE3 -gneE2"/>
    </vehicle>
    <vehicle id="281" depart="421.50">
        <route edges="gneE3 -gneE1"/>
    </vehicle>
    <vehicle id="282" depart="423.00">
        <route edges="gneE3 -gneE2"/>
    </vehicle>
    <vehicle id="283" depart="424.50">
        <route edges="gneE3 -gneE1"/>
    </vehicle>
    <vehicle id="284" depart="426.00">
        <route edges="gneE3 -gneE1"/>
    </vehicle>
    <vehicle id="285" depart="427.50">
        <route edges="gneE2 -gneE1"/>
    </vehicle>
    <vehicle id="286" depart="429.00">
        <route edges="gneE1 -gneE2"/>
    </vehicle>
    <vehicle id="287" depart="430.50">
        <route edges="gneE3 -gneE1"/>
    </vehicle>
    <vehicle id="288" depart="432.00">
        <route edges="gneE1 -gneE2"/>
    </vehicle>
    <vehicle id="289" depart="433.50">
        <route edges="gneE2 -gneE1"/>
    </vehicle>
    <vehicle id="291" depart="436.50">
        <route edges="gneE3 -gneE2"/>
    </vehicle>
    <vehicle id="293" depart="439.50">
        <route edges="gneE3 -gneE2"/>
    </vehicle>
    <vehicle id="296" depart="444.00">
        <route edges="gneE3 -gneE1"/>
    </vehicle>
    <vehicle id="299" depart="448.50">
        <route edges="gneE3 -gneE2"/>
    </vehicle>
    <vehicle id="302" depart="453.00">
        <route edges="gneE2 -gneE1"/>
    </vehicle>
    <vehicle id="303" depart="454.50">
        <route edges="gneE1 -gneE2"/>
    </vehicle>
    <vehicle id="304" depart="456.00">
        <route edges="gneE2 -gneE1"/>
    </vehicle>
    <vehicle id="305" depart="457.50">
        <route edges="gneE2 -gneE1"/>
    </vehicle>
    <vehicle id="309" depart="463.50">
        <route edges="gneE3 -gneE2"/>
    </vehicle>
    <vehicle id="310" depart="465.00">
        <route edges="gneE3 -gneE2"/>
    </vehicle>
    <vehicle id="311" depart="466.50">
        <route edges="gneE2 -gneE1"/>
    </vehicle>
    <vehicle id="312" depart="468.00">
        <route edges="gneE1 -gneE2"/>
    </vehicle>
    <vehicle id="313" depart="469.50">
        <route edges="gneE1 -gneE2"/>
    </vehicle>
    <vehicle id="314" depart="471.00">
        <route edges="gneE1 -gneE2"/>
    </vehicle>
    <vehicle id="315" depart="472.50">
        <route edges="gneE1 -gneE2"/>
    </vehicle>
    <vehicle id="317" depart="475.50">
        <route edges="gneE3 -gneE1"/>
    </vehicle>
    <vehicle id="320" depart="480.00">
        <route edges="gneE3 -gneE1"/>
    </vehicle>
    <vehicle id="322" depart="483.00">
        <route edges="gneE2 -gneE1"/>
    </vehicle>
    <vehicle id="324" depart="486.00">
        <route edges="gneE1 -gneE2"/>
    </vehicle>
    <vehicle id="325" depart="487.50">
        <route edges="gneE2 -gneE1"/>
    </vehicle>
    <vehicle id="326" depart="489.00">
        <route edges="gneE2 -gneE1"/>
    </vehicle>
    <vehicle id="328" depart="492.00">
        <route edges="gneE3 -gneE1"/>
    </vehicle>
    <vehicle id="330" depart="495.00">
        <route edges="gneE1 -gneE2"/>
    </vehicle>
    <vehicle id="331" depart="496.50">
        <route edges="gneE3 -gneE1"/>
    </vehicle>
    <vehicle id="332" depart="498.00">
        <route edges="gneE2 -gneE1"/>
    </vehicle>
    <vehicle id="333" depart="499.50">
        <route edges="gneE1 -gneE2"/>
    </vehicle>
    <vehicle id="334" depart="501.00">
        <route edges="gneE3 -gneE2"/>
    </vehicle>
    <vehicle id="339" depart="508.50">
        <route edges="gneE2 -gneE1"/>
    </vehicle>
    <vehicle id="340" depart="510.00">
        <route edges="gneE3 -gneE2"/>
    </vehicle>
    <vehicle id="341" depart="511.50">
        <route edges="gneE3 -gneE1"/>
    </vehicle>
    <vehicle id="342" depart="513.00">
        <route edges="gneE3 -gneE2"/>
    </vehicle>
    <vehicle id="343" depart="514.50">
        <route edges="gneE2 -gneE1"/>
    </vehicle>
    <vehicle id="347" depart="520.50">
        <route edges="gneE2 -gneE1"/>
    </vehicle>
    <vehicle id="348" depart="522.00">
        <route edges="gneE3 -gneE1"/>
    </vehicle>
    <vehicle id="351" depart="526.50">
        <route edges="gneE2 -gneE1"/>
    </vehicle>
    <vehicle id="353" depart="529.50">
        <route edges="gneE3 -gneE1"/>
    </vehicle>
    <vehicle id="355" depart="532.50">
        <route edges="gneE1 -gneE2"/>
    </vehicle>
    <vehicle id="356" depart="534.00">
        <route edges="gneE3 -gneE2"/>
    </vehicle>
    <vehicle id="357" depart="535.50">
        <route edges="gneE3 -gneE2"/>
    </vehicle>
    <vehicle id="358" depart="537.00">
        <route edges="gneE1 -gneE2"/>
    </vehicle>
    <vehicle id="360" depart="540.00">
        <route edges="gneE2 -gneE1"/>
    </vehicle>
    <vehicle id="361" depart="541.50">
        <route edges="gneE1 -gneE2"/>
    </vehicle>
    <vehicle id="362" depart="543.00">
        <route edges="gneE3 -gneE1"/>
    </vehicle>
    <vehicle id="364" depart="546.00">
        <route edges="gneE3 -gneE1"/>
    </vehicle>
    <vehicle id="365" depart="547.50">
        <route edges="gneE3 -gneE2"/>
    </vehicle>
    <vehicle id="366" depart="549.00">
        <route edges="gneE1 -gneE2"/>
    </vehicle>
    <vehicle id="367" depart="550.50">
        <route edges="gneE3 -gneE2"/>
    </vehicle>
    <vehicle id="370" depart="555.00">
        <route edges="gneE2 -gneE1"/>
    </vehicle>
    <vehicle id="372" depart="558.00">
        <route edges="gneE2 -gneE1"/>
    </vehicle>
    <vehicle id="373" depart="559.50">
        <route edges="gneE1 -gneE2"/>
    </vehicle>
    <vehicle id="374" depart="561.00">
        <route edges="gneE3 -gneE2"/>
    </vehicle>
    <vehicle id="375" depart="562.50">
        <route edges="gneE2 -gneE1"/>
    </vehicle>
    <vehicle id="376" depart="564.00">
        <route edges="gneE3 -gneE1"/>
    </vehicle>
    <vehicle id="377" depart="565.50">
        <route edges="gneE3 -gneE1"/>
    </vehicle>
    <vehicle id="378" depart="567.00">
        <route edges="gneE3 -gneE2"/>
    </vehicle>
    <vehicle id="379" depart="568.50">
        <route edges="gneE1 -gneE2"/>
    </vehicle>
    <vehicle id="380" depart="570.00">
        <route edges="gneE3 -gneE2"/>
    </vehicle>
    <vehicle id="381" depart="571.50">
        <route edges="gneE3 -gneE1"/>
    </vehicle>
    <vehicle id="382" depart="573.00">
        <route edges="gneE1 -gneE2"/>
    </vehicle>
    <vehicle id="383" depart="574.50">
        <route edges="gneE3 -gneE1"/>
    </vehicle>
    <vehicle id="384" depart="576.00">
        <route edges="gneE3 -gneE2"/>
    </vehicle>
    <vehicle id="385" depart="577.50">
        <route edges="gneE3 -gneE2"/>
    </vehicle>
    <vehicle id="386" depart="579.00">
        <route edges="gneE3 -gneE2"/>
    </vehicle>
    <vehicle id="387" depart="580.50">
        <route edges="gneE2 -gneE1"/>
    </vehicle>
    <vehicle id="388" depart="582.00">
        <route edges="gneE3 -gneE2"/>
    </vehicle>
    <vehicle id="389" depart="583.50">
        <route edges="gneE1 -gneE2"/>
    </vehicle>
    <vehicle id="390" depart="585.00">
        <route edges="gneE3 -gneE2"/>
    </vehicle>
    <vehicle id="391" depart="586.50">
        <route edges="gneE2 -gneE1"/>
    </vehicle>
    <vehicle id="392" depart="588.00">
        <route edges="gneE2 -gneE1"/>
    </vehicle>
    <vehicle id="394" depart="591.00">
        <route edges="gneE1 -gneE2"/>
    </vehicle>
    <vehicle id="395" depart="592.50">
        <route edges="gneE1 -gneE2"/>
    </vehicle>
    <vehicle id="396" depart="594.00">
        <route edges="gneE3 -gneE1"/>
    </vehicle>
    <vehicle id="398" depart="597.00">
        <route edges="gneE3 -gneE2"/>
    </vehicle>
    <vehicle id="400" depart="600.00">
        <route edges="gneE3 -gneE2"/>
    </vehicle>
    <vehicle id="402" depart="603.00">
        <route edges="gneE2 -gneE1"/>
    </vehicle>
    <vehicle id="405" depart="607.50">
        <route edges="gneE1 -gneE2"/>
    </vehicle>
    <vehicle id="407" depart="610.50">
        <route edges="gneE3 -gneE2"/>
    </vehicle>
    <vehicle id="409" depart="613.50">
        <route edges="gneE1 -gneE2"/>
    </vehicle>
    <vehicle id="410" depart="615.00">
        <route edges="gneE3 -gneE2"/>
    </vehicle>
    <vehicle id="412" depart="618.00">
        <route edges="gneE3 -gneE2"/>
    </vehicle>
    <vehicle id="413" depart="619.50">
        <route edges="gneE2 -gneE1"/>
    </vehicle>
    <vehicle id="414" depart="621.00">
        <route edges="gneE3 -gneE1"/>
    </vehicle>
    <vehicle id="415" depart="622.50">
        <route edges="gneE3 -gneE1"/>
    </vehicle>
    <vehicle id="419" depart="628.50">
        <route edges="gneE3 -gneE1"/>
    </vehicle>
    <vehicle id="421" depart="631.50">
        <route edges="gneE3 -gneE1"/>
    </vehicle>
    <vehicle id="422" depart="633.00">
        <route edges="gneE3 -gneE2"/>
    </vehicle>
    <vehicle id="426" depart="639.00">
        <route edges="gneE3 -gneE2"/>
    </vehicle>
    <vehicle id="429" depart="643.50">
        <route edges="gneE2 -gneE1"/>
    </vehicle>
    <vehicle id="430" depart="645.00">
        <route edges="gneE3 -gneE2"/>
    </vehicle>
    <vehicle id="431" depart="646.50">
        <route edges="gneE1 -gneE2"/>
    </vehicle>
    <vehicle id="434" depart="651.00">
        <route edges="gneE1 -gneE2"/>
    </vehicle>
    <vehicle id="435" depart="652.50">
        <route edges="gneE3 -gneE1"/>
    </vehicle>
    <vehicle id="437" depart="655.50">
        <route edges="gneE1 -gneE2"/>
    </vehicle>
    <vehicle id="438" depart="657.00">
        <route edges="gneE1 -gneE2"/>
    </vehicle>
    <vehicle id="439" depart="658.50">
        <route edges="gneE3 -gneE1"/>
    </vehicle>
    <vehicle id="440" depart="660.00">
        <route edges="gneE2 -gneE1"/>
    </vehicle>
    <vehicle id="441" depart="661.50">
        <route edges="gneE1 -gneE2"/>
    </vehicle>
    <vehicle id="442" depart="663.00">
        <route edges="gneE3 -gneE2"/>
    </vehicle>
    <vehicle id="445" depart="667.50">
        <route edges="gneE3 -gneE2"/>
    </vehicle>
    <vehicle id="446" depart="669.00">
        <route edges="gneE1 -gneE2"/>
    </vehicle>
    <vehicle id="447" depart="670.50">
        <route edges="gneE2 -gneE1"/>
    </vehicle>
    <vehicle id="449" depart="673.50">
        <route edges="gneE3 -gneE1"/>
    </vehicle>
    <vehicle id="450" depart="675.00">
        <route edges="gneE2 -gneE1"/>
    </vehicle>
    <vehicle id="451" depart="676.50">
        <route edges="gneE2 -gneE1"/>
    </vehicle>
    <vehicle id="453" depart="679.50">
        <route edges="gneE1 -gneE2"/>
    </vehicle>
    <vehicle id="454" depart="681.00">
        <route edges="gneE3 -gneE2"/>
    </vehicle>
    <vehicle id="455" depart="682.50">
        <route edges="gneE1 -gneE2"/>
    </vehicle>
    <vehicle id="456" depart="684.00">
        <route edges="gneE3 -gneE1"/>
    </vehicle>
    <vehicle id="457" depart="685.50">
        <route edges="gneE2 -gneE1"/>
    </vehicle>
    <vehicle id="459" depart="688.50">
        <route edges="gneE1 -gneE2"/>
    </vehicle>
    <vehicle id="461" depart="691.50">
        <route edges="gneE2 -gneE1"/>
    </vehicle>
    <vehicle id="462" depart="693.00">
        <route edges="gneE1 -gneE2"/>
    </vehicle>
    <vehicle id="465" depart="697.50">
        <route edges="gneE3 -gneE1"/>
    </vehicle>
    <vehicle id="469" depart="703.50">
        <route edges="gneE3 -gneE1"/>
    </vehicle>
    <vehicle id="470" depart="705.00">
        <route edges="gneE2 -gneE1"/>
    </vehicle>
    <vehicle id="472" depart="708.00">
        <route edges="gneE1 -gneE2"/>
    </vehicle>
    <vehicle id="473" depart="709.50">
        <route edges="gneE1 -gneE2"/>
    </vehicle>
    <vehicle id="474" depart="711.00">
        <route edges="gneE1 -gneE2"/>
    </vehicle>
    <vehicle id="475" depart="712.50">
        <route edges="gneE3 -gneE1"/>
    </vehicle>
    <vehicle id="476" depart="714.00">
        <route edges="gneE3 -gneE1"/>
    </vehicle>
    <vehicle id="477" depart="715.50">
        <route edges="gneE3 -gneE2"/>
    </vehicle>
    <vehicle id="480" depart="720.00">
        <route edges="gneE3 -gneE1"/>
    </vehicle>
    <vehicle id="481" depart="721.50">
        <route edges="gneE2 -gneE1"/>
    </vehicle>
    <vehicle id="483" depart="724.50">
        <route edges="gneE1 -gneE2"/>
    </vehicle>
    <vehicle id="484" depart="726.00">
        <route edges="gneE3 -gneE1"/>
    </vehicle>
    <vehicle id="487" depart="730.50">
        <route edges="gneE2 -gneE1"/>
    </vehicle>
    <vehicle id="489" depart="733.50">
        <route edges="gneE2 -gneE1"/>
    </vehicle>
    <vehicle id="490" depart="735.00">
        <route edges="gneE3 -gneE1"/>
    </vehicle>