<?xml version="1.0" encoding="UTF-8"?>

<!-- generated on Sun May  6 21:10:19 2018 by SUMO duarouter Version 0.30.0
<?xml version="1.0" encoding="UTF-8"?>

<configuration xmlns:xsi="http://www.w3.org/2001/XMLSchema-instance" xsi:noNamespaceSchemaLocation="http://sumo.dlr.de/xsd/duarouterConfiguration.xsd">

    <input>
        <net-file value="simple_T/simple_T.net.xml"/>
        <route-files value="trips.trips.xml"/>
    </input>

    <output>
        <output-file value="simple_T/route/simple_T-0.8-8.rou.xml"/>
    </output>

    <processing>
        <ignore-errors value="true"/>
    </processing>

    <time>
        <begin value="0.0"/>
        <end value="1000.0"/>
    </time>

    <report>
        <no-warnings value="true"/>
        <no-step-log value="true"/>
    </report>

</configuration>
-->

<routes xmlns:xsi="http://www.w3.org/2001/XMLSchema-instance" xsi:noNamespaceSchemaLocation="http://sumo.dlr.de/xsd/routes_file.xsd">
    <vehicle id="0" depart="0.00">
        <route edges="gneE3 -gneE1"/>
    </vehicle>
    <vehicle id="3" depart="2.40">
        <route edges="gneE3 -gneE1"/>
    </vehicle>
    <vehicle id="4" depart="3.20">
        <route edges="gneE1 -gneE2"/>
    </vehicle>
    <vehicle id="5" depart="4.00">
        <route edges="gneE3 -gneE1"/>
    </vehicle>
    <vehicle id="7" depart="5.60">
        <route edges="gneE3 -gneE2"/>
    </vehicle>
    <vehicle id="9" depart="7.20">
        <route edges="gneE3 -gneE1"/>
    </vehicle>
    <vehicle id="12" depart="9.60">
        <route edges="gneE3 -gneE2"/>
    </vehicle>
    <vehicle id="13" depart="10.40">
        <route edges="gneE3 -gneE1"/>
    </vehicle>
    <vehicle id="16" depart="12.80">
        <route edges="gneE3 -gneE1"/>
    </vehicle>
    <vehicle id="17" depart="13.60">
        <route edges="gneE1 -gneE2"/>
    </vehicle>
    <vehicle id="18" depart="14.40">
        <route edges="gneE3 -gneE2"/>
    </vehicle>
    <vehicle id="19" depart="15.20">
        <route edges="gneE2 -gneE1"/>
    </vehicle>
    <vehicle id="20" depart="16.00">
        <route edges="gneE2 -gneE1"/>
    </vehicle>
    <vehicle id="21" depart="16.80">
        <route edges="gneE3 -gneE1"/>
    </vehicle>
    <vehicle id="23" depart="18.40">
        <route edges="gneE1 -gneE2"/>
    </vehicle>
    <vehicle id="24" depart="19.20">
        <route edges="gneE3 -gneE1"/>
    </vehicle>
    <vehicle id="25" depart="20.00">
        <route edges="gneE3 -gneE1"/>
    </vehicle>
    <vehicle id="30" depart="24.00">
        <route edges="gneE3 -gneE2"/>
    </vehicle>
    <vehicle id="32" depart="25.60">
        <route edges="gneE1 -gneE2"/>
    </vehicle>
    <vehicle id="34" depart="27.20">
        <route edges="gneE1 -gneE2"/>
    </vehicle>
    <vehicle id="38" depart="30.40">
        <route edges="gneE2 -gneE1"/>
    </vehicle>
    <vehicle id="39" depart="31.20">
        <route edges="gneE3 -gneE1"/>
    </vehicle>
    <vehicle id="42" depart="33.60">
        <route edges="gneE1 -gneE2"/>
    </vehicle>
    <vehicle id="43" depart="34.40">
        <route edges="gneE3 -gneE2"/>
    </vehicle>
    <vehicle id="44" depart="35.20">
        <route edges="gneE2 -gneE1"/>
    </vehicle>
    <vehicle id="45" depart="36.00">
        <route edges="gneE1 -gneE2"/>
    </vehicle>
    <vehicle id="46" depart="36.80">
        <route edges="gneE3 -gneE2"/>
    </vehicle>
    <vehicle id="47" depart="37.60">
        <route edges="gneE3 -gneE1"/>
    </vehicle>
    <vehicle id="48" depart="38.40">
        <route edges="gneE3 -gneE1"/>
    </vehicle>
    <vehicle id="54" depart="43.20">
        <route edges="gneE2 -gneE1"/>
    </vehicle>
    <vehicle id="55" depart="44.00">
        <route edges="gneE3 -gneE2"/>
    </vehicle>
    <vehicle id="56" depart="44.80">
        <route edges="gneE3 -gneE1"/>
    </vehicle>
    <vehicle id="57" depart="45.60">
        <route edges="gneE2 -gneE1"/>
    </vehicle>
    <vehicle id="58" depart="46.40">
        <route edges="gneE3 -gneE2"/>
    </vehicle>
    <vehicle id="61" depart="48.80">
        <route edges="gneE2 -gneE1"/>
    </vehicle>
    <vehicle id="62" depart="49.60">
        <route edges="gneE1 -gneE2"/>
    </vehicle>
    <vehicle id="63" depart="50.40">
        <route edges="gneE3 -gneE2"/>
    </vehicle>
    <vehicle id="65" depart="52.00">
        <route edges="gneE3 -gneE1"/>
    </vehicle>
    <vehicle id="67" depart="53.60">
        <route edges="gneE3 -gneE1"/>
    </vehicle>
    <vehicle id="70" depart="56.00">
        <route edges="gneE1 -gneE2"/>
    </vehicle>
    <vehicle id="72" depart="57.60">
        <route edges="gneE2 -gneE1"/>
    </vehicle>
    <vehicle id="74" depart="59.20">
        <route edges="gneE3 -gneE2"/>
    </vehicle>
    <vehicle id="76" depart="60.80">
        <route edges="gneE3 -gneE1"/>
    </vehicle>
    <vehicle id="78" depart="62.40">
        <route edges="gneE2 -gneE1"/>
    </vehicle>
    <vehicle id="82" depart="65.60">
        <route edges="gneE3 -gneE1"/>
    </vehicle>
    <vehicle id="83" depart="66.40">
        <route edges="gneE3 -gneE2"/>
    </vehicle>
    <vehicle id="86" depart="68.80">
        <route edges="gneE2 -gneE1"/>
    </vehicle>
    <vehicle id="87" depart="69.60">
        <route edges="gneE2 -gneE1"/>
    </vehicle>
    <vehicle id="88" depart="70.40">
        <route edges="gneE3 -gneE2"/>
    </vehicle>
    <vehicle id="89" depart="71.20">
        <route edges="gneE3 -gneE2"/>
    </vehicle>
    <vehicle id="90" depart="72.00">
        <route edges="gneE1 -gneE2"/>
    </vehicle>
    <vehicle id="91" depart="72.80">
        <route edges="gneE3 -gneE1"/>
    </vehicle>
    <vehicle id="93" depart="74.40">
        <route edges="gneE2 -gneE1"/>
    </vehicle>
    <vehicle id="94" depart="75.20">
        <route edges="gneE3 -gneE2"/>
    </vehicle>
    <vehicle id="96" depart="76.80">
        <route edges="gneE3 -gneE2"/>
    </vehicle>
    <vehicle id="97" depart="77.60">
        <route edges="gneE1 -gneE2"/>
    </vehicle>
    <vehicle id="100" depart="80.00">
        <route edges="gneE3 -gneE2"/>
    </vehicle>
    <vehicle id="101" depart="80.80">
        <route edges="gneE3 -gneE2"/>
    </vehicle>
    <vehicle id="103" depart="82.40">
        <route edges="gneE1 -gneE2"/>
    </vehicle>
    <vehicle id="104" depart="83.20">
        <route edges="gneE3 -gneE1"/>
    </vehicle>
    <vehicle id="105" depart="84.00">
        <route edges="gneE2 -gneE1"/>
    </vehicle>
    <vehicle id="106" depart="84.80">
        <route edges="gneE1 -gneE2"/>
    </vehicle>
    <vehicle id="108" depart="86.40">
        <route edges="gneE2 -gneE1"/>
    </vehicle>
    <vehicle id="109" depart="87.20">
        <route edges="gneE3 -gneE2"/>
    </vehicle>
    <vehicle id="111" depart="88.80">
        <route edges="gneE2 -gneE1"/>
    </vehicle>
    <vehicle id="112" depart="89.60">
        <route edges="gneE3 -gneE1"/>
    </vehicle>
    <vehicle id="113" depart="90.40">
        <route edges="gneE3 -gneE2"/>
    </vehicle>
    <vehicle id="116" depart="92.80">
        <route edges="gneE1 -gneE2"/>
    </vehicle>
    <vehicle id="117" depart="93.60">
        <route edges="gneE2 -gneE1"/>
    </vehicle>
    <vehicle id="122" depart="97.60">
        <route edges="gneE3 -gneE2"/>
    </vehicle>
    <vehicle id="124" depart="99.20">
        <route edges="gneE3 -gneE1"/>
    </vehicle>
    <vehicle id="127" depart="101.60">
        <route edges="gneE1 -gneE2"/>
    </vehicle>
    <vehicle id="128" depart="102.40">
        <route edges="gneE2 -gneE1"/>
    </vehicle>
    <vehicle id="129" depart="103.20">
        <route edges="gneE3 -gneE1"/>
    </vehicle>
    <vehicle id="130" depart="104.00">
        <route edges="gneE3 -gneE2"/>
    </vehicle>
    <vehicle id="131" depart="104.80">
        <route edges="gneE3 -gneE2"/>
    </vehicle>
    <vehicle id="134" depart="107.20">
        <route edges="gneE3 -gneE1"/>
    </vehicle>
    <vehicle id="135" depart="108.00">
        <route edges="gneE3 -gneE1"/>
    </vehicle>
    <vehicle id="139" depart="111.20">
        <route edges="gneE3 -gneE2"/>
    </vehicle>
    <vehicle id="142" depart="113.60">
        <route edges="gneE2 -gneE1"/>
    </vehicle>
    <vehicle id="144" depart="115.20">
        <route edges="gneE3 -gneE2"/>
    </vehicle>
    <vehicle id="147" depart="117.60">
        <route edges="gneE3 -gneE1"/>
    </vehicle>
    <vehicle id="148" depart="118.40">
        <route edges="gneE2 -gneE1"/>
    </vehicle>
    <vehicle id="150" depart="120.00">
        <route edges="gneE3 -gneE2"/>
    </vehicle>
    <vehicle id="151" depart="120.80">
        <route edges="gneE2 -gneE1"/>
    </vehicle>
    <vehicle id="152" depart="121.60">
        <route edges="gneE1 -gneE2"/>
    </vehicle>
    <vehicle id="154" depart="123.20">
        <route edges="gneE3 -gneE2"/>
    </vehicle>
    <vehicle id="155" depart="124.00">
        <route edges="gneE3 -gneE1"/>
    </vehicle>
    <vehicle id="156" depart="124.80">
        <route edges="gneE3 -gneE1"/>
    </vehicle>
    <vehicle id="157" depart="125.60">
        <route edges="gneE3 -gneE2"/>
    </vehicle>
    <vehicle id="158" depart="126.40">
        <route edges="gneE1 -gneE2"/>
    </vehicle>
    <vehicle id="159" depart="127.20">
        <route edges="gneE3 -gneE2"/>
    </vehicle>
    <vehicle id="163" depart="130.40">
        <route edges="gneE1 -gneE2"/>
    </vehicle>
    <vehicle id="164" depart="131.20">
        <route edges="gneE1 -gneE2"/>
    </vehicle>
    <vehicle id="167" depart="133.60">
        <route edges="gneE1 -gneE2"/>
    </vehicle>
    <vehicle id="169" depart="135.20">
        <route edges="gneE2 -gneE1"/>
    </vehicle>
    <vehicle id="170" depart="136.00">
        <route edges="gneE2 -gneE1"/>
    </vehicle>
    <vehicle id="171" depart="136.80">
        <route edges="gneE3 -gneE1"/>
    </vehicle>
    <vehicle id="173" depart="138.40">
        <route edges="gneE3 -gneE1"/>
    </vehicle>
    <vehicle id="176" depart="140.80">
        <route edges="gneE2 -gneE1"/>
    </vehicle>
    <vehicle id="177" depart="141.60">
        <route edges="gneE3 -gneE1"/>
    </vehicle>
    <vehicle id="178" depart="142.40">
        <route edges="gneE3 -gneE1"/>
    </vehicle>
    <vehicle id="181" depart="144.80">
        <route edges="gneE1 -gneE2"/>
    </vehicle>
    <vehicle id="182" depart="145.60">
        <route edges="gneE1 -gneE2"/>
    </vehicle>
    <vehicle id="184" depart="147.20">
        <route edges="gneE2 -gneE1"/>
    </vehicle>
    <vehicle id="185" depart="148.00">
        <route edges="gneE3 -gneE2"/>
    </vehicle>
    <vehicle id="188" depart="150.40">
        <route edges="gneE3 -gneE1"/>
    </vehicle>
    <vehicle id="189" depart="151.20">
        <route edges="gneE1 -gneE2"/>
    </vehicle>
    <vehicle id="191" depart="152.80">
        <route edges="gneE3 -gneE1"/>
    </vehicle>
    <vehicle id="192" depart="153.60">
        <route edges="gneE2 -gneE1"/>
    </vehicle>
    <vehicle id="193" depart="154.40">
        <route edges="gneE3 -gneE1"/>
    </vehicle>
    <vehicle id="194" depart="155.20">
        <route edges="gneE3 -gneE1"/>
    </vehicle>
    <vehicle id="196" depart="156.80">
        <route edges="gneE1 -gneE2"/>
    </vehicle>
    <vehicle id="198" depart="158.40">
        <route edges="gneE3 -gneE1"/>
    </vehicle>
    <vehicle id="200" depart="160.00">
        <route edges="gneE3 -gneE1"/>
    </vehicle>
    <vehicle id="202" depart="161.60">
        <route edges="gneE1 -gneE2"/>
    </vehicle>
    <vehicle id="203" depart="162.40">
        <route edges="gneE3 -gneE1"/>
    </vehicle>
    <vehicle id="205" depart="164.00">
        <route edges="gneE3 -gneE2"/>
    </vehicle>
    <vehicle id="206" depart="164.80">
        <route edges="gneE3 -gneE1"/>
    </vehicle>
    <vehicle id="207" depart="165.60">
        <route edges="gneE3 -gneE2"/>
    </vehicle>
    <vehicle id="209" depart="167.20">
        <route edges="gneE1 -gneE2"/>
    </vehicle>
    <vehicle id="211" depart="168.80">
        <route edges="gneE3 -gneE1"/>
    </vehicle>
    <vehicle id="212" depart="169.60">
        <route edges="gneE3 -gneE2"/>
    </vehicle>
    <vehicle id="213" depart="170.40">
        <route edges="gneE3 -gneE1"/>
    </vehicle>
    <vehicle id="214" depart="171.20">
        <route edges="gneE3 -gneE2"/>
    </vehicle>
    <vehicle id="217" depart="173.60">
        <route edges="gneE3 -gneE1"/>
    </vehicle>
    <vehicle id="219" depart="175.20">
        <route edges="gneE3 -gneE1"/>
    </vehicle>
    <vehicle id="220" depart="176.00">
        <route edges="gneE2 -gneE1"/>
    </vehicle>
    <vehicle id="221" depart="176.80">
        <route edges="gneE1 -gneE2"/>
    </vehicle>
    <vehicle id="222" depart="177.60">
        <route edges="gneE1 -gneE2"/>
    </vehicle>
    <vehicle id="223" depart="178.40">
        <route edges="gneE3 -gneE2"/>
    </vehicle>
    <vehicle id="224" depart="179.20">
        <route edges="gneE3 -gneE1"/>
    </vehicle>
    <vehicle id="225" depart="180.00">
        <route edges="gneE1 -gneE2"/>
    </vehicle>
    <vehicle id="226" depart="180.80">
        <route edges="gneE2 -gneE1"/>
    </vehicle>
    <vehicle id="227" depart="181.60">
        <route edges="gneE2 -gneE1"/>
    </vehicle>
    <vehicle id="229" depart="183.20">
        <route edges="gneE3 -gneE1"/>
    </vehicle>
    <vehicle id="230" depart="184.00">
        <route edges="gneE1 -gneE2"/>
    </vehicle>
    <vehicle id="233" depart="186.40">
        <route edges="gneE3 -gneE2"/>
    </vehicle>
    <vehicle id="234" depart="187.20">
        <route edges="gneE1 -gneE2"/>
    </vehicle>
    <vehicle id="235" depart="188.00">
        <route edges="gneE3 -gneE1"/>
    </vehicle>
    <vehicle id="236" depart="188.80">
        <route edges="gneE3 -gneE2"/>
    </vehicle>
    <vehicle id="237" depart="189.60">
        <route edges="gneE1 -gneE2"/>
    </vehicle>
    <vehicle id="238" depart="190.40">
        <route edges="gneE2 -gneE1"/>
    </vehicle>
    <vehicle id="239" depart="191.20">
        <route edges="gneE1 -gneE2"/>
    </vehicle>
    <vehicle id="240" depart="192.00">
        <route edges="gneE1 -gneE2"/>
    </vehicle>
    <vehicle id="241" depart="192.80">
        <route edges="gneE3 -gneE1"/>
    </vehicle>
    <vehicle id="242" depart="193.60">
        <route edges="gneE3 -gneE2"/>
    </vehicle>
    <vehicle id="243" depart="194.40">
        <route edges="gneE3 -gneE2"/>
    </vehicle>
    <vehicle id="244" depart="195.20">
        <route edges="gneE1 -gneE2"/>
    </vehicle>
    <vehicle id="248" depart="198.40">
        <route edges="gneE3 -gneE2"/>
    </vehicle>
    <vehicle id="249" depart="199.20">
        <route edges="gneE1 -gneE2"/>
    </vehicle>
    <vehicle id="250" depart="200.00">
        <route edges="gneE3 -gneE2"/>
    </vehicle>
    <vehicle id="252" depart="201.60">
        <route edges="gneE2 -gneE1"/>
    </vehicle>
    <vehicle id="253" depart="202.40">
        <route edges="gneE3 -gneE2"/>
    </vehicle>
    <vehicle id="255" depart="204.00">
        <route edges="gneE3 -gneE1"/>
    </vehicle>
    <vehicle id="256" depart="204.80">
        <route edges="gneE2 -gneE1"/>
    </vehicle>
    <vehicle id="257" depart="205.60">
        <route edges="gneE3 -gneE1"/>
    </vehicle>
    <vehicle id="258" depart="206.40">
        <route edges="gneE2 -gneE1"/>
    </vehicle>
    <vehicle id="259" depart="207.20">
        <route edges="gneE3 -gneE2"/>
    </vehicle>
    <vehicle id="260" depart="208.00">
        <route edges="gneE2 -gneE1"/>
    </vehicle>
    <vehicle id="261" depart="208.80">
        <route edges="gneE3 -gneE2"/>
    </vehicle>
    <vehicle id="262" depart="209.60">
        <route edges="gneE3 -gneE1"/>
    </vehicle>
    <vehicle id="263" depart="210.40">
        <route edges="gneE3 -gneE1"/>
    </vehicle>
    <vehicle id="265" depart="212.00">
        <route edges="gneE2 -gneE1"/>
    </vehicle>
    <vehicle id="267" depart="213.60">
        <route edges="gneE3 -gneE1"/>
    </vehicle>
    <vehicle id="271" depart="216.80">
        <route edges="gneE3 -gneE1"/>
    </vehicle>
    <vehicle id="272" depart="217.60">
        <route edges="gneE1 -gneE2"/>
    </vehicle>
    <vehicle id="273" depart="218.40">
        <route edges="gneE1 -gneE2"/>
    </vehicle>
    <vehicle id="278" depart="222.40">
        <route edges="gneE3 -gneE2"/>
    </vehicle>
    <vehicle id="280" depart="224.00">
        <route edges="gneE3 -gneE1"/>
    </vehicle>
    <vehicle id="281" depart="224.80">
        <route edges="gneE3 -gneE1"/>
    </vehicle>
    <vehicle id="282" depart="225.60">
        <route edges="gneE3 -gneE2"/>
    </vehicle>
    <vehicle id="283" depart="226.40">
        <route edges="gneE3 -gneE2"/>
    </vehicle>
    <vehicle id="284" depart="227.20">
        <route edges="gneE3 -gneE1"/>
    </vehicle>
    <vehicle id="285" depart="228.00">
        <route edges="gneE1 -gneE2"/>
    </vehicle>
    <vehicle id="286" depart="228.80">
        <route edges="gneE2 -gneE1"/>
    </vehicle>
    <vehicle id="287" depart="229.60">
        <route edges="gneE3 -gneE1"/>
    </vehicle>
    <vehicle id="290" depart="232.00">
        <route edges="gneE1 -gneE2"/>
    </vehicle>
    <vehicle id="291" depart="232.80">
        <route edges="gneE1 -gneE2"/>
    </vehicle>
    <vehicle id="292" depart="233.60">
        <route edges="gneE3 -gneE2"/>
    </vehicle>
    <vehicle id="293" depart="234.40">
        <route edges="gneE2 -gneE1"/>
    </vehicle>
    <vehicle id="295" depart="236.00">
        <route edges="gneE3 -gneE1"/>
    </vehicle>
    <vehicle id="296" depart="236.80">
        <route edges="gneE3 -gneE1"/>
    </vehicle>
    <vehicle id="297" depart="237.60">
        <route edges="gneE3 -gneE1"/>
    </vehicle>
    <vehicle id="298" depart="238.40">
        <route edges="gneE1 -gneE2"/>
    </vehicle>
    <vehicle id="299" depart="239.20">
        <route edges="gneE2 -gneE1"/>
    </vehicle>
    <vehicle id="300" depart="240.00">
        <route edges="gneE1 -gneE2"/>
    </vehicle>
    <vehicle id="302" depart="241.60">
        <route edges="gneE3 -gneE1"/>
    </vehicle>
    <vehicle id="303" depart="242.40">
        <route edges="gneE2 -gneE1"/>
    </vehicle>
    <vehicle id="304" depart="243.20">
        <route edges="gneE2 -gneE1"/>
    </vehicle>
    <vehicle id="305" depart="244.00">
        <route edges="gneE3 -gneE2"/>
    </vehicle>
    <vehicle id="307" depart="245.60">
        <route edges="gneE3 -gneE2"/>
    </vehicle>
    <vehicle id="308" depart="246.40">
        <route edges="gneE3 -gneE2"/>
    </vehicle>
    <vehicle id="309" depart="247.20">
        <route edges="gneE3 -gneE2"/>
    </vehicle>
    <vehicle id="310" depart="248.00">
        <route edges="gneE2 -gneE1"/>
    </vehicle>
    <vehicle id="312" depart="249.60">
        <route edges="gneE3 -gneE1"/>
    </vehicle>
    <vehicle id="313" depart="250.40">
        <route edges="gneE3 -gneE1"/>
    </vehicle>
    <vehicle id="314" depart="251.20">
        <route edges="gneE2 -gneE1"/>
    </vehicle>
    <vehicle id="315" depart="252.00">
        <route edges="gneE1 -gneE2"/>
    </vehicle>
    <vehicle id="316" depart="252.80">
        <route edges="gneE3 -gneE1"/>
    </vehicle>
    <vehicle id="318" depart="254.40">
        <route edges="gneE1 -gneE2"/>
    </vehicle>
    <vehicle id="319" depart="255.20">
        <route edges="gneE3 -gneE2"/>
    </vehicle>
    <vehicle id="320" depart="256.00">
        <route edges="gneE3 -gneE1"/>
    </vehicle>
    <vehicle id="322" depart="257.60">
        <route edges="gneE3 -gneE2"/>
    </vehicle>
    <vehicle id="323" depart="258.40">
        <route edges="gneE3 -gneE1"/>
    </vehicle>
    <vehicle id="324" depart="259.20">
        <route edges="gneE3 -gneE1"/>
    </vehicle>
    <vehicle id="327" depart="261.60">
        <route edges="gneE2 -gneE1"/>
    </vehicle>
    <vehicle id="328" depart="262.40">
        <route edges="gneE3 -gneE2"/>
    </vehicle>
    <vehicle id="329" depart="263.20">
        <route edges="gneE3 -gneE1"/>
    </vehicle>
    <vehicle id="331" depart="264.80">
        <route edges="gneE2 -gneE1"/>
    </vehicle>
    <vehicle id="332" depart="265.60">
        <route edges="gneE3 -gneE2"/>
    </vehicle>
    <vehicle id="333" depart="266.40">
        <route edges="gneE3 -gneE2"/>
    </vehicle>
    <vehicle id="335" depart="268.00">
        <route edges="gneE2 -gneE1"/>
    </vehicle>
    <vehicle id="336" depart="268.80">
        <route edges="gneE3 -gneE2"/>
    </vehicle>
    <vehicle id="337" depart="269.60">
        <route edges="gneE2 -gneE1"/>
    </vehicle>
    <vehicle id="338" depart="270.40">
        <route edges="gneE2 -gneE1"/>
    </vehicle>
    <vehicle id="339" depart="271.20">
        <route edges="gneE3 -gneE1"/>
    </vehicle>
    <vehicle id="340" depart="272.00">
        <route edges="gneE3 -gneE1"/>
    </vehicle>
    <vehicle id="343" depart="274.40">
        <route edges="gneE2 -gneE1"/>
    </vehicle>
    <vehicle id="344" depart="275.20">
        <route edges="gneE3 -gneE2"/>
    </vehicle>
    <vehicle id="346" depart="276.80">
        <route edges="gneE3 -gneE2"/>
    </vehicle>
    <vehicle id="347" depart="277.60">
        <route edges="gneE2 -gneE1"/>
    </vehicle>
    <vehicle id="348" depart="278.40">
        <route edges="gneE3 -gneE1"/>
    </vehicle>
    <vehicle id="349" depart="279.20">
        <route edges="gneE3 -gneE2"/>
    </vehicle>
    <vehicle id="351" depart="280.80">
        <route edges="gneE2 -gneE1"/>
    </vehicle>
    <vehicle id="352" depart="281.60">
        <route edges="gneE1 -gneE2"/>
    </vehicle>
    <vehicle id="353" depart="282.40">
        <route edges="gneE2 -gneE1"/>
    </vehicle>
    <vehicle id="354" depart="283.20">
        <route edges="gneE3 -gneE1"/>
    </vehicle>
    <vehicle id="356" depart="284.80">
        <route edges="gneE3 -gneE2"/>
    </vehicle>
    <vehicle id="357" depart="285.60">
        <route edges="gneE3 -gneE1"/>
    </vehicle>
    <vehicle id="359" depart="287.20">
        <route edges="gneE1 -gneE2"/>
    </vehicle>
    <vehicle id="360" depart="288.00">
        <route edges="gneE2 -gneE1"/>
    </vehicle>
    <vehicle id="361" depart="288.80">
        <route edges="gneE2 -gneE1"/>
    </vehicle>
    <vehicle id="366" depart="292.80">
        <route edges="gneE3 -gneE2"/>
    </vehicle>
    <vehicle id="369" depart="295.20">
        <route edges="gneE3 -gneE1"/>
    </vehicle>
    <vehicle id="370" depart="296.00">
        <route edges="gneE3 -gneE1"/>
    </vehicle>
    <vehicle id="373" depart="298.40">
        <route edges="gneE3 -gneE2"/>
    </vehicle>
    <vehicle id="375" depart="300.00">
        <route edges="gneE3 -gneE2"/>
    </vehicle>
    <vehicle id="377" depart="301.60">
        <route edges="gneE3 -gneE1"/>
    </vehicle>
    <vehicle id="379" depart="303.20">
        <route edges="gneE3 -gneE2"/>
    </vehicle>
    <vehicle id="380" depart="304.00">
        <route edges="gneE1 -gneE2"/>
    </vehicle>
    <vehicle id="381" depart="304.80">
        <route edges="gneE2 -gneE1"/>
    </vehicle>
    <vehicle id="382" depart="305.60">
        <route edges="gneE2 -gneE1"/>
    </vehicle>
    <vehicle id="383" depart="306.40">
        <route edges="gneE3 -gneE2"/>
    </vehicle>
    <vehicle id="384" depart="307.20">
        <route edges="gneE2 -gneE1"/>
    </vehicle>
    <vehicle id="386" depart="308.80">
        <route edges="gneE3 -gneE2"/>
    </vehicle>
    <vehicle id="388" depart="310.40">
        <route edges="gneE1 -gneE2"/>
    </vehicle>
    <vehicle id="389" depart="311.20">
        <route edges="gneE3 -gneE1"/>
    </vehicle>
    <vehicle id="390" depart="312.00">
        <route edges="gneE1 -gneE2"/>
    </vehicle>
    <vehicle id="392" depart="313.60">
        <route edges="gneE2 -gneE1"/>
    </vehicle>
    <vehicle id="395" depart="316.00">
        <route edges="gneE3 -gneE1"/>
    </vehicle>
    <vehicle id="396" depart="316.80">
        <route edges="gneE3 -gneE1"/>
    </vehicle>
    <vehicle id="397" depart="317.60">
        <route edges="gneE3 -gneE2"/>
    </vehicle>
    <vehicle id="399" depart="319.20">
        <route edges="gneE1 -gneE2"/>
    </vehicle>
    <vehicle id="401" depart="320.80">
        <route edges="gneE1 -gneE2"/>
    </vehicle>
    <vehicle id="402" depart="321.60">
        <route edges="gneE2 -gneE1"/>
    </vehicle>
    <vehicle id="403" depart="322.40">
        <route edges="gneE3 -gneE2"/>
    </vehicle>
    <vehicle id="405" depart="324.00">
        <route edges="gneE3 -gneE2"/>
    </vehicle>
    <vehicle id="406" depart="324.80">
        <route edges="gneE3 -gneE2"/>
    </vehicle>
    <vehicle id="407" depart="325.60">
        <route edges="gneE3 -gneE1"/>
    </vehicle>
    <vehicle id="409" depart="327.20">
        <route edges="gneE3 -gneE2"/>
    </vehicle>
    <vehicle id="410" depart="328.00">
        <route edges="gneE3 -gneE2"/>
    </vehicle>
    <vehicle id="411" depart="328.80">
        <route edges="gneE1 -gneE2"/>
    </vehicle>
    <vehicle id="412" depart="329.60">
        <route edges="gneE3 -gneE1"/>
    </vehicle>
    <vehicle id="413" depart="330.40">
        <route edges="gneE1 -gneE2"/>
    </vehicle>
    <vehicle id="415" depart="332.00">
        <route edges="gneE3 -gneE1"/>
    </vehicle>
    <vehicle id="416" depart="332.80">
        <route edges="gneE3 -gneE1"/>
    </vehicle>
    <vehicle id="418" depart="334.40">
        <route edges="gneE2 -gneE1"/>
    </vehicle>
    <vehicle id="419" depart="335.20">
        <route edges="gneE1 -gneE2"/>
    </vehicle>
    <vehicle id="420" depart="336.00">
        <route edges="gneE3 -gneE2"/>
    </vehicle>
    <vehicle id="421" depart="336.80">
        <route edges="gneE2 -gneE1"/>
    </vehicle>
    <vehicle id="422" depart="337.60">
        <route edges="gneE2 -gneE1"/>
    </vehicle>
    <vehicle id="423" depart="338.40">
        <route edges="gneE1 -gneE2"/>
    </vehicle>
    <vehicle id="424" depart="339.20">
        <route edges="gneE1 -gneE2"/>
    </vehicle>
    <vehicle id="429" depart="343.20">
        <route edges="gneE3 -gneE2"/>
    </vehicle>
    <vehicle id="430" depart="344.00">
        <route edges="gneE3 -gneE2"/>
    </vehicle>
    <vehicle id="431" depart="344.80">
        <route edges="gneE1 -gneE2"/>
    </vehicle>
    <vehicle id="434" depart="347.20">
        <route edges="gneE2 -gneE1"/>
    </vehicle>
    <vehicle id="435" depart="348.00">
        <route edges="gneE3 -gneE2"/>
    </vehicle>
    <vehicle id="436" depart="348.80">
        <route edges="gneE2 -gneE1"/>
    </vehicle>
    <vehicle id="438" depart="350.40">
        <route edges="gneE3 -gneE1"/>
    </vehicle>
    <vehicle id="439" depart="351.20">
        <route edges="gneE2 -gneE1"/>
    </vehicle>
    <vehicle id="442" depart="353.60">
        <route edges="gneE3 -gneE1"/>
    </vehicle>
    <vehicle id="443" depart="354.40">
        <route edges="gneE2 -gneE1"/>
    </vehicle>
    <vehicle id="447" depart="357.60">
        <route edges="gneE3 -gneE1"/>
    </vehicle>
    <vehicle id="448" depart="358.40">
        <route edges="gneE2 -gneE1"/>
    </vehicle>
    <vehicle id="450" depart="360.00">
        <route edges="gneE3 -gneE1"/>
    </vehicle>
    <vehicle id="453" depart="362.40">
        <route edges="gneE3 -gneE2"/>
    </vehicle>
    <vehicle id="454" depart="363.20">
        <route edges="gneE3 -gneE2"/>
    </vehicle>
    <vehicle id="455" depart="364.00">
        <route edges="gneE3 -gneE1"/>
    </vehicle>
    <vehicle id="457" depart="365.60">
        <route edges="gneE2 -gneE1"/>
    </vehicle>
    <vehicle id="458" depart="366.40">
        <route edges="gneE3 -gneE2"/>
    </vehicle>
    <vehicle id="459" depart="367.20">
        <route edges="gneE2 -gneE1"/>
    </vehicle>
    <vehicle id="461" depart="368.80">
        <route edges="gneE3 -gneE1"/>
    </vehicle>
    <vehicle id="462" depart="369.60">
        <route edges="gneE2 -gneE1"/>
    </vehicle>
    <vehicle id="463" depart="370.40">
        <route edges="gneE3 -gneE1"/>
    </vehicle>
    <vehicle id="465" depart="372.00">
        <route edges="gneE2 -gneE1"/>
    </vehicle>
    <vehicle id="466" depart="372.80">
        <route edges="gneE1 -gneE2"/>
    </vehicle>
    <vehicle id="467" depart="373.60">
        <route edges="gneE1 -gneE2"/>
    </vehicle>
    <vehicle id="470" depart="376.00">
        <route edges="gneE1 -gneE2"/>
    </vehicle>
    <vehicle id="471" depart="376.80">
        <route edges="gneE2 -gneE1"/>
    </vehicle>
    <vehicle id="472" depart="377.60">
        <route edges="gneE3 -gneE1"/>
    </vehicle>
    <vehicle id="473" depart="378.40">
        <route edges="gneE1 -gneE2"/>
    </vehicle>
    <vehicle id="474" depart="379.20">
        <route edges="gneE3 -gneE1"/>
    </vehicle>
    <vehicle id="476" depart="380.80">
        <route edges="gneE3 -gneE2"/>
    </vehicle>
    <vehicle id="477" depart="381.60">
        <route edges="gneE3 -gneE2"/>
    </vehicle>
    <vehicle id="478" depart="382.40">
        <route edges="gneE1 -gneE2"/>
    </vehicle>
    <vehicle id="479" depart="383.20">
        <route edges="gneE3 -gneE1"/>
    </vehicle>
    <vehicle id="480" depart="384.00">
        <route edges="gneE1 -gneE2"/>
    </vehicle>
    <vehicle id="481" depart="384.80">
        <route edges="gneE3 -gneE1"/>
    </vehicle>
    <vehicle id="484" depart="387.20">
        <route edges="gneE3 -gneE1"/>
    </vehicle>
    <vehicle id="486" depart="388.80">
        <route edges="gneE1 -gneE2"/>
    </vehicle>
    <vehicle id="487" depart="389.60">
        <route edges="gneE1 -gneE2"/>
    </vehicle>
    <vehicle id="488" depart="390.40">
        <route edges="gneE3 -gneE1"/>
    </vehicle>
    <vehicle id="489" depart="391.20">
        <route edges="gneE1 -gneE2"/>
    </vehicle>
    <vehicle id="490" depart="392.00">
        <route edges="gneE1 -gneE2"/>
    </vehicle>
    <vehicle id="491" depart="392.80">
        <route edges="gneE3 -gneE1"/>
    </vehicle>