<?xml version="1.0" encoding="UTF-8"?>

<!-- generated on Sun May  6 21:10:17 2018 by SUMO duarouter Version 0.30.0
<?xml version="1.0" encoding="UTF-8"?>

<configuration xmlns:xsi="http://www.w3.org/2001/XMLSchema-instance" xsi:noNamespaceSchemaLocation="http://sumo.dlr.de/xsd/duarouterConfiguration.xsd">

    <input>
        <net-file value="simple_T/simple_T.net.xml"/>
        <route-files value="trips.trips.xml"/>
    </input>

    <output>
        <output-file value="simple_T/route/simple_T-0.8-6.rou.xml"/>
    </output>

    <processing>
        <ignore-errors value="true"/>
    </processing>

    <time>
        <begin value="0.0"/>
        <end value="1000.0"/>
    </time>

    <report>
        <no-warnings value="true"/>
        <no-step-log value="true"/>
    </report>

</configuration>
-->

<routes xmlns:xsi="http://www.w3.org/2001/XMLSchema-instance" xsi:noNamespaceSchemaLocation="http://sumo.dlr.de/xsd/routes_file.xsd">
    <vehicle id="0" depart="0.00">
        <route edges="gneE3 -gneE2"/>
    </vehicle>
    <vehicle id="1" depart="0.80">
        <route edges="gneE2 -gneE1"/>
    </vehicle>
    <vehicle id="2" depart="1.60">
        <route edges="gneE3 -gneE1"/>
    </vehicle>
    <vehicle id="3" depart="2.40">
        <route edges="gneE3 -gneE1"/>
    </vehicle>
    <vehicle id="4" depart="3.20">
        <route edges="gneE1 -gneE2"/>
    </vehicle>
    <vehicle id="6" depart="4.80">
        <route edges="gneE3 -gneE2"/>
    </vehicle>
    <vehicle id="7" depart="5.60">
        <route edges="gneE3 -gneE2"/>
    </vehicle>
    <vehicle id="8" depart="6.40">
        <route edges="gneE2 -gneE1"/>
    </vehicle>
    <vehicle id="12" depart="9.60">
        <route edges="gneE3 -gneE1"/>
    </vehicle>
    <vehicle id="13" depart="10.40">
        <route edges="gneE3 -gneE2"/>
    </vehicle>
    <vehicle id="14" depart="11.20">
        <route edges="gneE1 -gneE2"/>
    </vehicle>
    <vehicle id="16" depart="12.80">
        <route edges="gneE2 -gneE1"/>
    </vehicle>
    <vehicle id="17" depart="13.60">
        <route edges="gneE3 -gneE1"/>
    </vehicle>
    <vehicle id="18" depart="14.40">
        <route edges="gneE1 -gneE2"/>
    </vehicle>
    <vehicle id="19" depart="15.20">
        <route edges="gneE2 -gneE1"/>
    </vehicle>
    <vehicle id="20" depart="16.00">
        <route edges="gneE1 -gneE2"/>
    </vehicle>
    <vehicle id="21" depart="16.80">
        <route edges="gneE3 -gneE1"/>
    </vehicle>
    <vehicle id="23" depart="18.40">
        <route edges="gneE3 -gneE1"/>
    </vehicle>
    <vehicle id="26" depart="20.80">
        <route edges="gneE2 -gneE1"/>
    </vehicle>
    <vehicle id="28" depart="22.40">
        <route edges="gneE3 -gneE2"/>
    </vehicle>
    <vehicle id="30" depart="24.00">
        <route edges="gneE1 -gneE2"/>
    </vehicle>
    <vehicle id="32" depart="25.60">
        <route edges="gneE3 -gneE2"/>
    </vehicle>
    <vehicle id="33" depart="26.40">
        <route edges="gneE3 -gneE1"/>
    </vehicle>
    <vehicle id="35" depart="28.00">
        <route edges="gneE2 -gneE1"/>
    </vehicle>
    <vehicle id="36" depart="28.80">
        <route edges="gneE1 -gneE2"/>
    </vehicle>
    <vehicle id="37" depart="29.60">
        <route edges="gneE2 -gneE1"/>
    </vehicle>
    <vehicle id="39" depart="31.20">
        <route edges="gneE1 -gneE2"/>
    </vehicle>
    <vehicle id="41" depart="32.80">
        <route edges="gneE1 -gneE2"/>
    </vehicle>
    <vehicle id="42" depart="33.60">
        <route edges="gneE1 -gneE2"/>
    </vehicle>
    <vehicle id="43" depart="34.40">
        <route edges="gneE3 -gneE1"/>
    </vehicle>
    <vehicle id="44" depart="35.20">
        <route edges="gneE3 -gneE1"/>
    </vehicle>
    <vehicle id="45" depart="36.00">
        <route edges="gneE3 -gneE2"/>
    </vehicle>
    <vehicle id="46" depart="36.80">
        <route edges="gneE1 -gneE2"/>
    </vehicle>
    <vehicle id="47" depart="37.60">
        <route edges="gneE3 -gneE1"/>
    </vehicle>
    <vehicle id="55" depart="44.00">
        <route edges="gneE3 -gneE2"/>
    </vehicle>
    <vehicle id="56" depart="44.80">
        <route edges="gneE1 -gneE2"/>
    </vehicle>
    <vehicle id="57" depart="45.60">
        <route edges="gneE1 -gneE2"/>
    </vehicle>
    <vehicle id="59" depart="47.20">
        <route edges="gneE3 -gneE2"/>
    </vehicle>
    <vehicle id="60" depart="48.00">
        <route edges="gneE3 -gneE2"/>
    </vehicle>
    <vehicle id="61" depart="48.80">
        <route edges="gneE2 -gneE1"/>
    </vehicle>
    <vehicle id="62" depart="49.60">
        <route edges="gneE1 -gneE2"/>
    </vehicle>
    <vehicle id="65" depart="52.00">
        <route edges="gneE3 -gneE1"/>
    </vehicle>
    <vehicle id="67" depart="53.60">
        <route edges="gneE3 -gneE1"/>
    </vehicle>
    <vehicle id="70" depart="56.00">
        <route edges="gneE3 -gneE2"/>
    </vehicle>
    <vehicle id="71" depart="56.80">
        <route edges="gneE1 -gneE2"/>
    </vehicle>
    <vehicle id="73" depart="58.40">
        <route edges="gneE3 -gneE1"/>
    </vehicle>
    <vehicle id="74" depart="59.20">
        <route edges="gneE3 -gneE1"/>
    </vehicle>
    <vehicle id="75" depart="60.00">
        <route edges="gneE3 -gneE2"/>
    </vehicle>
    <vehicle id="76" depart="60.80">
        <route edges="gneE3 -gneE1"/>
    </vehicle>
    <vehicle id="77" depart="61.60">
        <route edges="gneE1 -gneE2"/>
    </vehicle>
    <vehicle id="78" depart="62.40">
        <route edges="gneE3 -gneE1"/>
    </vehicle>
    <vehicle id="79" depart="63.20">
        <route edges="gneE3 -gneE1"/>
    </vehicle>
    <vehicle id="81" depart="64.80">
        <route edges="gneE2 -gneE1"/>
    </vehicle>
    <vehicle id="82" depart="65.60">
        <route edges="gneE3 -gneE2"/>
    </vehicle>
    <vehicle id="83" depart="66.40">
        <route edges="gneE2 -gneE1"/>
    </vehicle>
    <vehicle id="85" depart="68.00">
        <route edges="gneE1 -gneE2"/>
    </vehicle>
    <vehicle id="88" depart="70.40">
        <route edges="gneE2 -gneE1"/>
    </vehicle>
    <vehicle id="89" depart="71.20">
        <route edges="gneE2 -gneE1"/>
    </vehicle>
    <vehicle id="90" depart="72.00">
        <route edges="gneE1 -gneE2"/>
    </vehicle>
    <vehicle id="91" depart="72.80">
        <route edges="gneE1 -gneE2"/>
    </vehicle>
    <vehicle id="92" depart="73.60">
        <route edges="gneE3 -gneE1"/>
    </vehicle>
    <vehicle id="93" depart="74.40">
        <route edges="gneE1 -gneE2"/>
    </vehicle>
    <vehicle id="96" depart="76.80">
        <route edges="gneE3 -gneE2"/>
    </vehicle>
    <vehicle id="101" depart="80.80">
        <route edges="gneE3 -gneE1"/>
    </vehicle>
    <vehicle id="102" depart="81.60">
        <route edges="gneE2 -gneE1"/>
    </vehicle>
    <vehicle id="103" depart="82.40">
        <route edges="gneE3 -gneE2"/>
    </vehicle>
    <vehicle id="105" depart="84.00">
        <route edges="gneE3 -gneE1"/>
    </vehicle>
    <vehicle id="107" depart="85.60">
        <route edges="gneE2 -gneE1"/>
    </vehicle>
    <vehicle id="109" depart="87.20">
        <route edges="gneE3 -gneE2"/>
    </vehicle>
    <vehicle id="110" depart="88.00">
        <route edges="gneE1 -gneE2"/>
    </vehicle>
    <vehicle id="112" depart="89.60">
        <route edges="gneE3 -gneE1"/>
    </vehicle>
    <vehicle id="113" depart="90.40">
        <route edges="gneE2 -gneE1"/>
    </vehicle>
    <vehicle id="114" depart="91.20">
        <route edges="gneE1 -gneE2"/>
    </vehicle>
    <vehicle id="116" depart="92.80">
        <route edges="gneE2 -gneE1"/>
    </vehicle>
    <vehicle id="118" depart="94.40">
        <route edges="gneE2 -gneE1"/>
    </vehicle>
    <vehicle id="119" depart="95.20">
        <route edges="gneE3 -gneE1"/>
    </vehicle>
    <vehicle id="121" depart="96.80">
        <route edges="gneE3 -gneE1"/>
    </vehicle>
    <vehicle id="122" depart="97.60">
        <route edges="gneE2 -gneE1"/>
    </vehicle>
    <vehicle id="123" depart="98.40">
        <route edges="gneE3 -gneE2"/>
    </vehicle>
    <vehicle id="124" depart="99.20">
        <route edges="gneE2 -gneE1"/>
    </vehicle>
    <vehicle id="126" depart="100.80">
        <route edges="gneE1 -gneE2"/>
    </vehicle>
    <vehicle id="127" depart="101.60">
        <route edges="gneE3 -gneE1"/>
    </vehicle>
    <vehicle id="128" depart="102.40">
        <route edges="gneE3 -gneE1"/>
    </vehicle>
    <vehicle id="131" depart="104.80">
        <route edges="gneE3 -gneE1"/>
    </vehicle>
    <vehicle id="132" depart="105.60">
        <route edges="gneE3 -gneE2"/>
    </vehicle>
    <vehicle id="133" depart="106.40">
        <route edges="gneE3 -gneE1"/>
    </vehicle>
    <vehicle id="134" depart="107.20">
        <route edges="gneE2 -gneE1"/>
    </vehicle>
    <vehicle id="135" depart="108.00">
        <route edges="gneE2 -gneE1"/>
    </vehicle>
    <vehicle id="136" depart="108.80">
        <route edges="gneE1 -gneE2"/>
    </vehicle>
    <vehicle id="137" depart="109.60">
        <route edges="gneE1 -gneE2"/>
    </vehicle>
    <vehicle id="138" depart="110.40">
        <route edges="gneE3 -gneE1"/>
    </vehicle>
    <vehicle id="139" depart="111.20">
        <route edges="gneE1 -gneE2"/>
    </vehicle>
    <vehicle id="143" depart="114.40">
        <route edges="gneE2 -gneE1"/>
    </vehicle>
    <vehicle id="144" depart="115.20">
        <route edges="gneE3 -gneE2"/>
    </vehicle>
    <vehicle id="146" depart="116.80">
        <route edges="gneE3 -gneE2"/>
    </vehicle>
    <vehicle id="147" depart="117.60">
        <route edges="gneE1 -gneE2"/>
    </vehicle>
    <vehicle id="150" depart="120.00">
        <route edges="gneE1 -gneE2"/>
    </vehicle>
    <vehicle id="151" depart="120.80">
        <route edges="gneE3 -gneE2"/>
    </vehicle>
    <vehicle id="152" depart="121.60">
        <route edges="gneE3 -gneE2"/>
    </vehicle>
    <vehicle id="154" depart="123.20">
        <route edges="gneE2 -gneE1"/>
    </vehicle>
    <vehicle id="156" depart="124.80">
        <route edges="gneE3 -gneE2"/>
    </vehicle>
    <vehicle id="157" depart="125.60">
        <route edges="gneE1 -gneE2"/>
    </vehicle>
    <vehicle id="158" depart="126.40">
        <route edges="gneE3 -gneE2"/>
    </vehicle>
    <vehicle id="160" depart="128.00">
        <route edges="gneE3 -gneE1"/>
    </vehicle>
    <vehicle id="161" depart="128.80">
        <route edges="gneE1 -gneE2"/>
    </vehicle>
    <vehicle id="162" depart="129.60">
        <route edges="gneE3 -gneE2"/>
    </vehicle>
    <vehicle id="163" depart="130.40">
        <route edges="gneE1 -gneE2"/>
    </vehicle>
    <vehicle id="164" depart="131.20">
        <route edges="gneE3 -gneE1"/>
    </vehicle>
    <vehicle id="165" depart="132.00">
        <route edges="gneE2 -gneE1"/>
    </vehicle>
    <vehicle id="166" depart="132.80">
        <route edges="gneE3 -gneE2"/>
    </vehicle>
    <vehicle id="168" depart="134.40">
        <route edges="gneE3 -gneE2"/>
    </vehicle>
    <vehicle id="169" depart="135.20">
        <route edges="gneE3 -gneE1"/>
    </vehicle>
    <vehicle id="171" depart="136.80">
        <route edges="gneE2 -gneE1"/>
    </vehicle>
    <vehicle id="172" depart="137.60">
        <route edges="gneE1 -gneE2"/>
    </vehicle>
    <vehicle id="174" depart="139.20">
        <route edges="gneE3 -gneE2"/>
    </vehicle>
    <vehicle id="178" depart="142.40">
        <route edges="gneE1 -gneE2"/>
    </vehicle>
    <vehicle id="179" depart="143.20">
        <route edges="gneE3 -gneE1"/>
    </vehicle>
    <vehicle id="180" depart="144.00">
        <route edges="gneE2 -gneE1"/>
    </vehicle>
    <vehicle id="181" depart="144.80">
        <route edges="gneE3 -gneE2"/>
    </vehicle>
    <vehicle id="182" depart="145.60">
        <route edges="gneE3 -gneE1"/>
    </vehicle>
    <vehicle id="183" depart="146.40">
        <route edges="gneE2 -gneE1"/>
    </vehicle>
    <vehicle id="184" depart="147.20">
        <route edges="gneE3 -gneE2"/>
    </vehicle>
    <vehicle id="187" depart="149.60">
        <route edges="gneE1 -gneE2"/>
    </vehicle>
    <vehicle id="188" depart="150.40">
        <route edges="gneE3 -gneE1"/>
    </vehicle>
    <vehicle id="190" depart="152.00">
        <route edges="gneE3 -gneE2"/>
    </vehicle>
    <vehicle id="191" depart="152.80">
        <route edges="gneE2 -gneE1"/>
    </vehicle>
    <vehicle id="195" depart="156.00">
        <route edges="gneE3 -gneE1"/>
    </vehicle>
    <vehicle id="196" depart="156.80">
        <route edges="gneE1 -gneE2"/>
    </vehicle>
    <vehicle id="197" depart="157.60">
        <route edges="gneE1 -gneE2"/>
    </vehicle>
    <vehicle id="200" depart="160.00">
        <route edges="gneE3 -gneE1"/>
    </vehicle>
    <vehicle id="201" depart="160.80">
        <route edges="gneE3 -gneE1"/>
    </vehicle>
    <vehicle id="202" depart="161.60">
        <route edges="gneE3 -gneE2"/>
    </vehicle>
    <vehicle id="205" depart="164.00">
        <route edges="gneE2 -gneE1"/>
    </vehicle>
    <vehicle id="206" depart="164.80">
        <route edges="gneE2 -gneE1"/>
    </vehicle>
    <vehicle id="209" depart="167.20">
        <route edges="gneE3 -gneE1"/>
    </vehicle>
    <vehicle id="211" depart="168.80">
        <route edges="gneE3 -gneE2"/>
    </vehicle>
    <vehicle id="212" depart="169.60">
        <route edges="gneE1 -gneE2"/>
    </vehicle>
    <vehicle id="218" depart="174.40">
        <route edges="gneE3 -gneE1"/>
    </vehicle>
    <vehicle id="219" depart="175.20">
        <route edges="gneE1 -gneE2"/>
    </vehicle>
    <vehicle id="220" depart="176.00">
        <route edges="gneE3 -gneE2"/>
    </vehicle>
    <vehicle id="221" depart="176.80">
        <route edges="gneE3 -gneE2"/>
    </vehicle>
    <vehicle id="223" depart="178.40">
        <route edges="gneE3 -gneE1"/>
    </vehicle>
    <vehicle id="224" depart="179.20">
        <route edges="gneE3 -gneE1"/>
    </vehicle>
    <vehicle id="226" depart="180.80">
        <route edges="gneE3 -gneE2"/>
    </vehicle>
    <vehicle id="227" depart="181.60">
        <route edges="gneE3 -gneE2"/>
    </vehicle>
    <vehicle id="233" depart="186.40">
        <route edges="gneE2 -gneE1"/>
    </vehicle>
    <vehicle id="234" depart="187.20">
        <route edges="gneE2 -gneE1"/>
    </vehicle>
    <vehicle id="235" depart="188.00">
        <route edges="gneE3 -gneE2"/>
    </vehicle>
    <vehicle id="236" depart="188.80">
        <route edges="gneE1 -gneE2"/>
    </vehicle>
    <vehicle id="237" depart="189.60">
        <route edges="gneE1 -gneE2"/>
    </vehicle>
    <vehicle id="238" depart="190.40">
        <route edges="gneE2 -gneE1"/>
    </vehicle>
    <vehicle id="239" depart="191.20">
        <route edges="gneE2 -gneE1"/>
    </vehicle>
    <vehicle id="240" depart="192.00">
        <route edges="gneE3 -gneE1"/>
    </vehicle>
    <vehicle id="241" depart="192.80">
        <route edges="gneE3 -gneE1"/>
    </vehicle>
    <vehicle id="242" depart="193.60">
        <route edges="gneE1 -gneE2"/>
    </vehicle>
    <vehicle id="243" depart="194.40">
        <route edges="gneE1 -gneE2"/>
    </vehicle>
    <vehicle id="244" depart="195.20">
        <route edges="gneE2 -gneE1"/>
    </vehicle>
    <vehicle id="246" depart="196.80">
        <route edges="gneE1 -gneE2"/>
    </vehicle>
    <vehicle id="247" depart="197.60">
        <route edges="gneE1 -gneE2"/>
    </vehicle>
    <vehicle id="249" depart="199.20">
        <route edges="gneE1 -gneE2"/>
    </vehicle>
    <vehicle id="250" depart="200.00">
        <route edges="gneE1 -gneE2"/>
    </vehicle>
    <vehicle id="251" depart="200.80">
        <route edges="gneE2 -gneE1"/>
    </vehicle>
    <vehicle id="253" depart="202.40">
        <route edges="gneE3 -gneE1"/>
    </vehicle>
    <vehicle id="254" depart="203.20">
        <route edges="gneE3 -gneE2"/>
    </vehicle>
    <vehicle id="257" depart="205.60">
        <route edges="gneE1 -gneE2"/>
    </vehicle>
    <vehicle id="258" depart="206.40">
        <route edges="gneE2 -gneE1"/>
    </vehicle>
    <vehicle id="260" depart="208.00">
        <route edges="gneE3 -gneE2"/>
    </vehicle>
    <vehicle id="261" depart="208.80">
        <route edges="gneE2 -gneE1"/>
    </vehicle>
    <vehicle id="262" depart="209.60">
        <route edges="gneE2 -gneE1"/>
    </vehicle>
    <vehicle id="265" depart="212.00">
        <route edges="gneE1 -gneE2"/>
    </vehicle>
    <vehicle id="266" depart="212.80">
        <route edges="gneE1 -gneE2"/>
    </vehicle>
    <vehicle id="267" depart="213.60">
        <route edges="gneE3 -gneE1"/>
    </vehicle>
    <vehicle id="273" depart="218.40">
        <route edges="gneE1 -gneE2"/>
    </vehicle>
    <vehicle id="275" depart="220.00">
        <route edges="gneE1 -gneE2"/>
    </vehicle>
    <vehicle id="276" depart="220.80">
        <route edges="gneE2 -gneE1"/>
    </vehicle>
    <vehicle id="277" depart="221.60">
        <route edges="gneE3 -gneE1"/>
    </vehicle>
    <vehicle id="278" depart="222.40">
        <route edges="gneE1 -gneE2"/>
    </vehicle>
    <vehicle id="280" depart="224.00">
        <route edges="gneE1 -gneE2"/>
    </vehicle>
    <vehicle id="282" depart="225.60">
        <route edges="gneE3 -gneE2"/>
    </vehicle>
    <vehicle id="283" depart="226.40">
        <route edges="gneE3 -gneE1"/>
    </vehicle>
    <vehicle id="291" depart="232.80">
        <route edges="gneE3 -gneE2"/>
    </vehicle>
    <vehicle id="292" depart="233.60">
        <route edges="gneE2 -gneE1"/>
    </vehicle>
    <vehicle id="293" depart="234.40">
        <route edges="gneE3 -gneE1"/>
    </vehicle>
    <vehicle id="295" depart="236.00">
        <route edges="gneE3 -gneE2"/>
    </vehicle>
    <vehicle id="296" depart="236.80">
        <route edges="gneE1 -gneE2"/>
    </vehicle>
    <vehicle id="297" depart="237.60">
        <route edges="gneE3 -gneE1"/>
    </vehicle>
    <vehicle id="298" depart="238.40">
        <route edges="gneE3 -gneE1"/>
    </vehicle>
    <vehicle id="299" depart="239.20">
        <route edges="gneE3 -gneE1"/>
    </vehicle>
    <vehicle id="300" depart="240.00">
        <route edges="gneE3 -gneE2"/>
    </vehicle>
    <vehicle id="302" depart="241.60">
        <route edges="gneE3 -gneE1"/>
    </vehicle>
    <vehicle id="303" depart="242.40">
        <route edges="gneE3 -gneE2"/>
    </vehicle>
    <vehicle id="304" depart="243.20">
        <route edges="gneE1 -gneE2"/>
    </vehicle>
    <vehicle id="305" depart="244.00">
        <route edges="gneE3 -gneE2"/>
    </vehicle>
    <vehicle id="306" depart="244.80">
        <route edges="gneE1 -gneE2"/>
    </vehicle>
    <vehicle id="308" depart="246.40">
        <route edges="gneE2 -gneE1"/>
    </vehicle>
    <vehicle id="309" depart="247.20">
        <route edges="gneE3 -gneE2"/>
    </vehicle>
    <vehicle id="311" depart="248.80">
        <route edges="gneE3 -gneE1"/>
    </vehicle>
    <vehicle id="312" depart="249.60">
        <route edges="gneE2 -gneE1"/>
    </vehicle>
    <vehicle id="313" depart="250.40">
        <route edges="gneE2 -gneE1"/>
    </vehicle>
    <vehicle id="314" depart="251.20">
        <route edges="gneE3 -gneE2"/>
    </vehicle>
    <vehicle id="315" depart="252.00">
        <route edges="gneE3 -gneE2"/>
    </vehicle>
    <vehicle id="316" depart="252.80">
        <route edges="gneE2 -gneE1"/>
    </vehicle>
    <vehicle id="319" depart="255.20">
        <route edges="gneE2 -gneE1"/>
    </vehicle>
    <vehicle id="324" depart="259.20">
        <route edges="gneE2 -gneE1"/>
    </vehicle>
    <vehicle id="325" depart="260.00">
        <route edges="gneE3 -gneE2"/>
    </vehicle>
    <vehicle id="326" depart="260.80">
        <route edges="gneE3 -gneE2"/>
    </vehicle>
    <vehicle id="328" depart="262.40">
        <route edges="gneE3 -gneE2"/>
    </vehicle>
    <vehicle id="330" depart="264.00">
        <route edges="gneE3 -gneE2"/>
    </vehicle>
    <vehicle id="333" depart="266.40">
        <route edges="gneE3 -gneE2"/>
    </vehicle>
    <vehicle id="335" depart="268.00">
        <route edges="gneE2 -gneE1"/>
    </vehicle>
    <vehicle id="337" depart="269.60">
        <route edges="gneE2 -gneE1"/>
    </vehicle>
    <vehicle id="339" depart="271.20">
        <route edges="gneE3 -gneE1"/>
    </vehicle>
    <vehicle id="341" depart="272.80">
        <route edges="gneE2 -gneE1"/>
    </vehicle>
    <vehicle id="342" depart="273.60">
        <route edges="gneE3 -gneE1"/>
    </vehicle>
    <vehicle id="343" depart="274.40">
        <route edges="gneE1 -gneE2"/>
    </vehicle>
    <vehicle id="344" depart="275.20">
        <route edges="gneE1 -gneE2"/>
    </vehicle>
    <vehicle id="345" depart="276.00">
        <route edges="gneE3 -gneE1"/>
    </vehicle>
    <vehicle id="347" depart="277.60">
        <route edges="gneE3 -gneE1"/>
    </vehicle>
    <vehicle id="348" depart="278.40">
        <route edges="gneE3 -gneE1"/>
    </vehicle>
    <vehicle id="350" depart="280.00">
        <route edges="gneE3 -gneE1"/>
    </vehicle>
    <vehicle id="353" depart="282.40">
        <route edges="gneE1 -gneE2"/>
    </vehicle>
    <vehicle id="354" depart="283.20">
        <route edges="gneE1 -gneE2"/>
    </vehicle>
    <vehicle id="355" depart="284.00">
        <route edges="gneE1 -gneE2"/>
    </vehicle>
    <vehicle id="357" depart="285.60">
        <route edges="gneE2 -gneE1"/>
    </vehicle>
    <vehicle id="358" depart="286.40">
        <route edges="gneE1 -gneE2"/>
    </vehicle>
    <vehicle id="360" depart="288.00">
        <route edges="gneE1 -gneE2"/>
    </vehicle>
    <vehicle id="361" depart="288.80">
        <route edges="gneE3 -gneE2"/>
    </vehicle>
    <vehicle id="362" depart="289.60">
        <route edges="gneE3 -gneE1"/>
    </vehicle>
    <vehicle id="363" depart="290.40">
        <route edges="gneE2 -gneE1"/>
    </vehicle>
    <vehicle id="364" depart="291.20">
        <route edges="gneE2 -gneE1"/>
    </vehicle>
    <vehicle id="365" depart="292.00">
        <route edges="gneE1 -gneE2"/>
    </vehicle>
    <vehicle id="366" depart="292.80">
        <route edges="gneE3 -gneE1"/>
    </vehicle>
    <vehicle id="370" depart="296.00">
        <route edges="gneE1 -gneE2"/>
    </vehicle>
    <vehicle id="371" depart="296.80">
        <route edges="gneE1 -gneE2"/>
    </vehicle>
    <vehicle id="373" depart="298.40">
        <route edges="gneE3 -gneE1"/>
    </vehicle>
    <vehicle id="374" depart="299.20">
        <route edges="gneE2 -gneE1"/>
    </vehicle>
    <vehicle id="375" depart="300.00">
        <route edges="gneE3 -gneE2"/>
    </vehicle>
    <vehicle id="377" depart="301.60">
        <route edges="gneE3 -gneE1"/>
    </vehicle>
    <vehicle id="378" depart="302.40">
        <route edges="gneE2 -gneE1"/>
    </vehicle>
    <vehicle id="380" depart="304.00">
        <route edges="gneE3 -gneE2"/>
    </vehicle>
    <vehicle id="381" depart="304.80">
        <route edges="gneE3 -gneE1"/>
    </vehicle>
    <vehicle id="382" depart="305.60">
        <route edges="gneE2 -gneE1"/>
    </vehicle>
    <vehicle id="383" depart="306.40">
        <route edges="gneE3 -gneE1"/>
    </vehicle>
    <vehicle id="385" depart="308.00">
        <route edges="gneE1 -gneE2"/>
    </vehicle>
    <vehicle id="386" depart="308.80">
        <route edges="gneE3 -gneE1"/>
    </vehicle>
    <vehicle id="387" depart="309.60">
        <route edges="gneE1 -gneE2"/>
    </vehicle>
    <vehicle id="388" depart="310.40">
        <route edges="gneE3 -gneE2"/>
    </vehicle>
    <vehicle id="389" depart="311.20">
        <route edges="gneE2 -gneE1"/>
    </vehicle>
    <vehicle id="390" depart="312.00">
        <route edges="gneE3 -gneE1"/>
    </vehicle>
    <vehicle id="391" depart="312.80">
        <route edges="gneE3 -gneE2"/>
    </vehicle>
    <vehicle id="392" depart="313.60">
        <route edges="gneE3 -gneE1"/>
    </vehicle>
    <vehicle id="393" depart="314.40">
        <route edges="gneE1 -gneE2"/>
    </vehicle>
    <vehicle id="394" depart="315.20">
        <route edges="gneE3 -gneE2"/>
    </vehicle>
    <vehicle id="398" depart="318.40">
        <route edges="gneE1 -gneE2"/>
    </vehicle>
    <vehicle id="399" depart="319.20">
        <route edges="gneE3 -gneE2"/>
    </vehicle>
    <vehicle id="403" depart="322.40">
        <route edges="gneE1 -gneE2"/>
    </vehicle>
    <vehicle id="408" depart="326.40">
        <route edges="gneE2 -gneE1"/>
    </vehicle>
    <vehicle id="410" depart="328.00">
        <route edges="gneE2 -gneE1"/>
    </vehicle>
    <vehicle id="411" depart="328.80">
        <route edges="gneE2 -gneE1"/>
    </vehicle>
    <vehicle id="415" depart="332.00">
        <route edges="gneE2 -gneE1"/>
    </vehicle>
    <vehicle id="416" depart="332.80">
        <route edges="gneE2 -gneE1"/>
    </vehicle>
    <vehicle id="418" depart="334.40">
        <route edges="gneE1 -gneE2"/>
    </vehicle>
    <vehicle id="419" depart="335.20">
        <route edges="gneE3 -gneE1"/>
    </vehicle>
    <vehicle id="423" depart="338.40">
        <route edges="gneE2 -gneE1"/>
    </vehicle>
    <vehicle id="424" depart="339.20">
        <route edges="gneE1 -gneE2"/>
    </vehicle>
    <vehicle id="425" depart="340.00">
        <route edges="gneE3 -gneE2"/>
    </vehicle>
    <vehicle id="426" depart="340.80">
        <route edges="gneE3 -gneE1"/>
    </vehicle>
    <vehicle id="427" depart="341.60">
        <route edges="gneE1 -gneE2"/>
    </vehicle>
    <vehicle id="429" depart="343.20">
        <route edges="gneE2 -gneE1"/>
    </vehicle>
    <vehicle id="430" depart="344.00">
        <route edges="gneE3 -gneE1"/>
    </vehicle>
    <vehicle id="434" depart="347.20">
        <route edges="gneE2 -gneE1"/>
    </vehicle>
    <vehicle id="435" depart="348.00">
        <route edges="gneE3 -gneE1"/>
    </vehicle>
    <vehicle id="436" depart="348.80">
        <route edges="gneE3 -gneE1"/>
    </vehicle>
    <vehicle id="442" depart="353.60">
        <route edges="gneE3 -gneE1"/>
    </vehicle>
    <vehicle id="443" depart="354.40">
        <route edges="gneE1 -gneE2"/>
    </vehicle>
    <vehicle id="445" depart="356.00">
        <route edges="gneE2 -gneE1"/>
    </vehicle>
    <vehicle id="446" depart="356.80">
        <route edges="gneE3 -gneE1"/>
    </vehicle>
    <vehicle id="448" depart="358.40">
        <route edges="gneE3 -gneE1"/>
    </vehicle>
    <vehicle id="449" depart="359.20">
        <route edges="gneE2 -gneE1"/>
    </vehicle>
    <vehicle id="450" depart="360.00">
        <route edges="gneE1 -gneE2"/>
    </vehicle>
    <vehicle id="452" depart="361.60">
        <route edges="gneE2 -gneE1"/>
    </vehicle>
    <vehicle id="454" depart="363.20">
        <route edges="gneE3 -gneE1"/>
    </vehicle>
    <vehicle id="456" depart="364.80">
        <route edges="gneE3 -gneE1"/>
    </vehicle>
    <vehicle id="459" depart="367.20">
        <route edges="gneE1 -gneE2"/>
    </vehicle>
    <vehicle id="460" depart="368.00">
        <route edges="gneE2 -gneE1"/>
    </vehicle>
    <vehicle id="462" depart="369.60">
        <route edges="gneE3 -gneE1"/>
    </vehicle>
    <vehicle id="463" depart="370.40">
        <route edges="gneE3 -gneE2"/>
    </vehicle>
    <vehicle id="464" depart="371.20">
        <route edges="gneE2 -gneE1"/>
    </vehicle>
    <vehicle id="465" depart="372.00">
        <route edges="gneE3 -gneE1"/>
    </vehicle>
    <vehicle id="466" depart="372.80">
        <route edges="gneE1 -gneE2"/>
    </vehicle>
    <vehicle id="468" depart="374.40">
        <route edges="gneE3 -gneE2"/>
    </vehicle>
    <vehicle id="471" depart="376.80">
        <route edges="gneE3 -gneE1"/>
    </vehicle>
    <vehicle id="473" depart="378.40">
        <route edges="gneE3 -gneE2"/>
    </vehicle>
    <vehicle id="474" depart="379.20">
        <route edges="gneE2 -gneE1"/>
    </vehicle>
    <vehicle id="475" depart="380.00">
        <route edges="gneE2 -gneE1"/>
    </vehicle>
    <vehicle id="476" depart="380.80">
        <route edges="gneE2 -gneE1"/>
    </vehicle>
    <vehicle id="478" depart="382.40">
        <route edges="gneE3 -gneE2"/>
    </vehicle>
    <vehicle id="479" depart="383.20">
        <route edges="gneE3 -gneE1"/>
    </vehicle>
    <vehicle id="481" depart="384.80">
        <route edges="gneE3 -gneE1"/>
    </vehicle>
    <vehicle id="483" depart="386.40">
        <route edges="gneE3 -gneE1"/>
    </vehicle>
    <vehicle id="485" depart="388.00">
        <route edges="gneE3 -gneE2"/>
    </vehicle>
    <vehicle id="486" depart="388.80">
        <route edges="gneE2 -gneE1"/>
    </vehicle>
    <vehicle id="487" depart="389.60">
        <route edges="gneE3 -gneE2"/>
    </vehicle>
    <vehicle id="489" depart="391.20">
        <route edges="gneE3 -gneE2"/>
    </vehicle>
    <vehicle id="490" depart="392.00">
        <route edges="gneE1 -gneE2"/>
    </vehicle>
    <vehicle id="494" depart="395.20">
        <route edges="gneE1 -gneE2"/>
    </vehicle>
    <vehicle id="495" depart="396.00">
        <route edges="gneE2 -gneE1"/>
    </vehicle>
    <vehicle id="498" depart="398.40">
        <route edges="gneE3 -gneE2"/>
    </vehicle>
    <vehicle id="500" depart="400.00">
        <route edges="gneE1 -gneE2"/>
    </vehicle>
    <vehicle id="501" depart="400.80">
        <route edges="gneE3 -gneE2"/>
    </vehicle>
    <vehicle id="502" depart="401.60">
        <route edges="gneE2 -gneE1"/>
    </vehicle>
    <vehicle id="503" depart="402.40">
        <route edges="gneE2 -gneE1"/>
    </vehicle>
    <vehicle id="504" depart="403.20">
        <route edges="gneE3 -gneE2"/>
    </vehicle>
    <vehicle id="507" depart="405.60">
        <route edges="gneE2 -gneE1"/>
    </vehicle>
    <vehicle id="510" depart="408.00">
        <route edges="gneE3 -gneE2"/>
    </vehicle>
    <vehicle id="512" depart="409.60">
        <route edges="gneE3 -gneE2"/>
    </vehicle>
    <vehicle id="513" depart="410.40">
        <route edges="gneE3 -gneE1"/>
    </vehicle>
    <vehicle id="516" depart="412.80">