<?xml version="1.0" encoding="UTF-8"?>

<!-- generated on Sun May  6 21:12:30 2018 by SUMO duarouter Version 0.30.0
<?xml version="1.0" encoding="UTF-8"?>

<configuration xmlns:xsi="http://www.w3.org/2001/XMLSchema-instance" xsi:noNamespaceSchemaLocation="http://sumo.dlr.de/xsd/duarouterConfiguration.xsd">

    <input>
        <net-file value="simple_T/simple_T.net.xml"/>
        <route-files value="trips.trips.xml"/>
    </input>

    <output>
        <output-file value="simple_T/route/simple_T-1.3-5.rou.xml"/>
    </output>

    <processing>
        <ignore-errors value="true"/>
    </processing>

    <time>
        <begin value="0.0"/>
        <end value="1000.0"/>
    </time>

    <report>
        <no-warnings value="true"/>
        <no-step-log value="true"/>
    </report>

</configuration>
-->

<routes xmlns:xsi="http://www.w3.org/2001/XMLSchema-instance" xsi:noNamespaceSchemaLocation="http://sumo.dlr.de/xsd/routes_file.xsd">
    <vehicle id="0" depart="0.00">
        <route edges="gneE2 -gneE1"/>
    </vehicle>
    <vehicle id="1" depart="1.30">
        <route edges="gneE2 -gneE1"/>
    </vehicle>
    <vehicle id="2" depart="2.60">
        <route edges="gneE1 -gneE2"/>
    </vehicle>
    <vehicle id="3" depart="3.90">
        <route edges="gneE3 -gneE2"/>
    </vehicle>
    <vehicle id="4" depart="5.20">
        <route edges="gneE3 -gneE1"/>
    </vehicle>
    <vehicle id="5" depart="6.50">
        <route edges="gneE2 -gneE1"/>
    </vehicle>
    <vehicle id="6" depart="7.80">
        <route edges="gneE2 -gneE1"/>
    </vehicle>
    <vehicle id="7" depart="9.10">
        <route edges="gneE3 -gneE1"/>
    </vehicle>
    <vehicle id="8" depart="10.40">
        <route edges="gneE1 -gneE2"/>
    </vehicle>
    <vehicle id="11" depart="14.30">
        <route edges="gneE3 -gneE2"/>
    </vehicle>
    <vehicle id="12" depart="15.60">
        <route edges="gneE1 -gneE2"/>
    </vehicle>
    <vehicle id="13" depart="16.90">
        <route edges="gneE3 -gneE2"/>
    </vehicle>
    <vehicle id="14" depart="18.20">
        <route edges="gneE1 -gneE2"/>
    </vehicle>
    <vehicle id="15" depart="19.50">
        <route edges="gneE2 -gneE1"/>
    </vehicle>
    <vehicle id="17" depart="22.10">
        <route edges="gneE2 -gneE1"/>
    </vehicle>
    <vehicle id="18" depart="23.40">
        <route edges="gneE1 -gneE2"/>
    </vehicle>
    <vehicle id="20" depart="26.00">
        <route edges="gneE2 -gneE1"/>
    </vehicle>
    <vehicle id="24" depart="31.20">
        <route edges="gneE3 -gneE2"/>
    </vehicle>
    <vehicle id="25" depart="32.50">
        <route edges="gneE1 -gneE2"/>
    </vehicle>
    <vehicle id="26" depart="33.80">
        <route edges="gneE3 -gneE2"/>
    </vehicle>
    <vehicle id="27" depart="35.10">
        <route edges="gneE3 -gneE2"/>
    </vehicle>
    <vehicle id="28" depart="36.40">
        <route edges="gneE1 -gneE2"/>
    </vehicle>
    <vehicle id="29" depart="37.70">
        <route edges="gneE2 -gneE1"/>
    </vehicle>
    <vehicle id="30" depart="39.00">
        <route edges="gneE3 -gneE2"/>
    </vehicle>
    <vehicle id="31" depart="40.30">
        <route edges="gneE3 -gneE2"/>
    </vehicle>
    <vehicle id="33" depart="42.90">
        <route edges="gneE2 -gneE1"/>
    </vehicle>
    <vehicle id="34" depart="44.20">
        <route edges="gneE2 -gneE1"/>
    </vehicle>
    <vehicle id="35" depart="45.50">
        <route edges="gneE3 -gneE1"/>
    </vehicle>
    <vehicle id="36" depart="46.80">
        <route edges="gneE3 -gneE2"/>
    </vehicle>
    <vehicle id="38" depart="49.40">
        <route edges="gneE3 -gneE2"/>
    </vehicle>
    <vehicle id="41" depart="53.30">
        <route edges="gneE1 -gneE2"/>
    </vehicle>
    <vehicle id="42" depart="54.60">
        <route edges="gneE3 -gneE2"/>
    </vehicle>
    <vehicle id="44" depart="57.20">
        <route edges="gneE2 -gneE1"/>
    </vehicle>
    <vehicle id="45" depart="58.50">
        <route edges="gneE2 -gneE1"/>
    </vehicle>
    <vehicle id="48" depart="62.40">
        <route edges="gneE3 -gneE1"/>
    </vehicle>
    <vehicle id="49" depart="63.70">
        <route edges="gneE1 -gneE2"/>
    </vehicle>
    <vehicle id="51" depart="66.30">
        <route edges="gneE3 -gneE1"/>
    </vehicle>
    <vehicle id="52" depart="67.60">
        <route edges="gneE3 -gneE1"/>
    </vehicle>
    <vehicle id="55" depart="71.50">
        <route edges="gneE2 -gneE1"/>
    </vehicle>
    <vehicle id="57" depart="74.10">
        <route edges="gneE2 -gneE1"/>
    </vehicle>
    <vehicle id="58" depart="75.40">
        <route edges="gneE1 -gneE2"/>
    </vehicle>
    <vehicle id="60" depart="78.00">
        <route edges="gneE3 -gneE2"/>
    </vehicle>
    <vehicle id="61" depart="79.30">
        <route edges="gneE2 -gneE1"/>
    </vehicle>
    <vehicle id="62" depart="80.60">
        <route edges="gneE1 -gneE2"/>
    </vehicle>
    <vehicle id="66" depart="85.80">
        <route edges="gneE3 -gneE2"/>
    </vehicle>
    <vehicle id="67" depart="87.10">
        <route edges="gneE3 -gneE2"/>
    </vehicle>
    <vehicle id="68" depart="88.40">
        <route edges="gneE2 -gneE1"/>
    </vehicle>
    <vehicle id="69" depart="89.70">
        <route edges="gneE1 -gneE2"/>
    </vehicle>
    <vehicle id="71" depart="92.30">
        <route edges="gneE3 -gneE2"/>
    </vehicle>
    <vehicle id="73" depart="94.90">
        <route edges="gneE3 -gneE1"/>
    </vehicle>
    <vehicle id="74" depart="96.20">
        <route edges="gneE3 -gneE1"/>
    </vehicle>
    <vehicle id="76" depart="98.80">
        <route edges="gneE3 -gneE2"/>
    </vehicle>
    <vehicle id="77" depart="100.10">
        <route edges="gneE1 -gneE2"/>
    </vehicle>
    <vehicle id="78" depart="101.40">
        <route edges="gneE3 -gneE2"/>
    </vehicle>
    <vehicle id="79" depart="102.70">
        <route edges="gneE2 -gneE1"/>
    </vehicle>
    <vehicle id="81" depart="105.30">
        <route edges="gneE3 -gneE2"/>
    </vehicle>
    <vehicle id="83" depart="107.90">
        <route edges="gneE3 -gneE1"/>
    </vehicle>
    <vehicle id="84" depart="109.20">
        <route edges="gneE2 -gneE1"/>
    </vehicle>
    <vehicle id="86" depart="111.80">
        <route edges="gneE1 -gneE2"/>
    </vehicle>
    <vehicle id="87" depart="113.10">
        <route edges="gneE2 -gneE1"/>
    </vehicle>
    <vehicle id="88" depart="114.40">
        <route edges="gneE2 -gneE1"/>
    </vehicle>
    <vehicle id="89" depart="115.70">
        <route edges="gneE2 -gneE1"/>
    </vehicle>
    <vehicle id="90" depart="117.00">
        <route edges="gneE1 -gneE2"/>
    </vehicle>
    <vehicle id="91" depart="118.30">
        <route edges="gneE3 -gneE2"/>
    </vehicle>
    <vehicle id="93" depart="120.90">
        <route edges="gneE3 -gneE1"/>
    </vehicle>
    <vehicle id="95" depart="123.50">
        <route edges="gneE3 -gneE1"/>
    </vehicle>
    <vehicle id="96" depart="124.80">
        <route edges="gneE1 -gneE2"/>
    </vehicle>
    <vehicle id="97" depart="126.10">
        <route edges="gneE2 -gneE1"/>
    </vehicle>
    <vehicle id="98" depart="127.40">
        <route edges="gneE2 -gneE1"/>
    </vehicle>
    <vehicle id="99" depart="128.70">
        <route edges="gneE3 -gneE2"/>
    </vehicle>
    <vehicle id="100" depart="130.00">
        <route edges="gneE1 -gneE2"/>
    </vehicle>
    <vehicle id="101" depart="131.30">
        <route edges="gneE3 -gneE2"/>
    </vehicle>
    <vehicle id="102" depart="132.60">
        <route edges="gneE3 -gneE1"/>
    </vehicle>
    <vehicle id="103" depart="133.90">
        <route edges="gneE2 -gneE1"/>
    </vehicle>
    <vehicle id="104" depart="135.20">
        <route edges="gneE3 -gneE1"/>
    </vehicle>
    <vehicle id="107" depart="139.10">
        <route edges="gneE3 -gneE2"/>
    </vehicle>
    <vehicle id="108" depart="140.40">
        <route edges="gneE2 -gneE1"/>
    </vehicle>
    <vehicle id="109" depart="141.70">
        <route edges="gneE3 -gneE2"/>
    </vehicle>
    <vehicle id="110" depart="143.00">
        <route edges="gneE3 -gneE1"/>
    </vehicle>
    <vehicle id="113" depart="146.90">
        <route edges="gneE2 -gneE1"/>
    </vehicle>
    <vehicle id="117" depart="152.10">
        <route edges="gneE1 -gneE2"/>
    </vehicle>
    <vehicle id="118" depart="153.40">
        <route edges="gneE1 -gneE2"/>
    </vehicle>
    <vehicle id="124" depart="161.20">
        <route edges="gneE1 -gneE2"/>
    </vehicle>
    <vehicle id="126" depart="163.80">
        <route edges="gneE3 -gneE2"/>
    </vehicle>
    <vehicle id="127" depart="165.10">
        <route edges="gneE2 -gneE1"/>
    </vehicle>
    <vehicle id="128" depart="166.40">
        <route edges="gneE2 -gneE1"/>
    </vehicle>
    <vehicle id="130" depart="169.00">
        <route edges="gneE2 -gneE1"/>
    </vehicle>
    <vehicle id="131" depart="170.30">
        <route edges="gneE3 -gneE2"/>
    </vehicle>
    <vehicle id="132" depart="171.60">
        <route edges="gneE2 -gneE1"/>
    </vehicle>
    <vehicle id="134" depart="174.20">
        <route edges="gneE2 -gneE1"/>
    </vehicle>
    <vehicle id="135" depart="175.50">
        <route edges="gneE2 -gneE1"/>
    </vehicle>
    <vehicle id="137" depart="178.10">
        <route edges="gneE2 -gneE1"/>
    </vehicle>
    <vehicle id="138" depart="179.40">
        <route edges="gneE3 -gneE2"/>
    </vehicle>
    <vehicle id="139" depart="180.70">
        <route edges="gneE3 -gneE1"/>
    </vehicle>
    <vehicle id="141" depart="183.30">
        <route edges="gneE3 -gneE2"/>
    </vehicle>
    <vehicle id="142" depart="184.60">
        <route edges="gneE1 -gneE2"/>
    </vehicle>
    <vehicle id="143" depart="185.90">
        <route edges="gneE3 -gneE1"/>
    </vehicle>
    <vehicle id="146" depart="189.80">
        <route edges="gneE1 -gneE2"/>
    </vehicle>
    <vehicle id="147" depart="191.10">
        <route edges="gneE1 -gneE2"/>
    </vehicle>
    <vehicle id="149" depart="193.70">
        <route edges="gneE3 -gneE1"/>
    </vehicle>
    <vehicle id="151" depart="196.30">
        <route edges="gneE1 -gneE2"/>
    </vehicle>
    <vehicle id="152" depart="197.60">
        <route edges="gneE3 -gneE2"/>
    </vehicle>
    <vehicle id="154" depart="200.20">
        <route edges="gneE3 -gneE1"/>
    </vehicle>
    <vehicle id="155" depart="201.50">
        <route edges="gneE3 -gneE1"/>
    </vehicle>
    <vehicle id="156" depart="202.80">
        <route edges="gneE2 -gneE1"/>
    </vehicle>
    <vehicle id="157" depart="204.10">
        <route edges="gneE3 -gneE2"/>
    </vehicle>
    <vehicle id="158" depart="205.40">
        <route edges="gneE3 -gneE2"/>
    </vehicle>
    <vehicle id="161" depart="209.30">
        <route edges="gneE1 -gneE2"/>
    </vehicle>
    <vehicle id="162" depart="210.60">
        <route edges="gneE1 -gneE2"/>
    </vehicle>
    <vehicle id="163" depart="211.90">
        <route edges="gneE3 -gneE1"/>
    </vehicle>
    <vehicle id="165" depart="214.50">
        <route edges="gneE1 -gneE2"/>
    </vehicle>
    <vehicle id="166" depart="215.80">
        <route edges="gneE3 -gneE2"/>
    </vehicle>
    <vehicle id="167" depart="217.10">
        <route edges="gneE3 -gneE1"/>
    </vehicle>
    <vehicle id="169" depart="219.70">
        <route edges="gneE1 -gneE2"/>
    </vehicle>
    <vehicle id="170" depart="221.00">
        <route edges="gneE1 -gneE2"/>
    </vehicle>
    <vehicle id="171" depart="222.30">
        <route edges="gneE2 -gneE1"/>
    </vehicle>
    <vehicle id="172" depart="223.60">
        <route edges="gneE2 -gneE1"/>
    </vehicle>
    <vehicle id="173" depart="224.90">
        <route edges="gneE2 -gneE1"/>
    </vehicle>
    <vehicle id="174" depart="226.20">
        <route edges="gneE3 -gneE2"/>
    </vehicle>
    <vehicle id="175" depart="227.50">
        <route edges="gneE2 -gneE1"/>
    </vehicle>
    <vehicle id="176" depart="228.80">
        <route edges="gneE3 -gneE2"/>
    </vehicle>
    <vehicle id="177" depart="230.10">
        <route edges="gneE3 -gneE1"/>
    </vehicle>
    <vehicle id="179" depart="232.70">
        <route edges="gneE1 -gneE2"/>
    </vehicle>
    <vehicle id="180" depart="234.00">
        <route edges="gneE1 -gneE2"/>
    </vehicle>
    <vehicle id="181" depart="235.30">
        <route edges="gneE2 -gneE1"/>
    </vehicle>
    <vehicle id="182" depart="236.60">
        <route edges="gneE3 -gneE2"/>
    </vehicle>
    <vehicle id="183" depart="237.90">
        <route edges="gneE3 -gneE1"/>
    </vehicle>
    <vehicle id="184" depart="239.20">
        <route edges="gneE3 -gneE1"/>
    </vehicle>
    <vehicle id="185" depart="240.50">
        <route edges="gneE2 -gneE1"/>
    </vehicle>
    <vehicle id="186" depart="241.80">
        <route edges="gneE2 -gneE1"/>
    </vehicle>
    <vehicle id="187" depart="243.10">
        <route edges="gneE3 -gneE1"/>
    </vehicle>
    <vehicle id="188" depart="244.40">
        <route edges="gneE3 -gneE2"/>
    </vehicle>
    <vehicle id="189" depart="245.70">
        <route edges="gneE1 -gneE2"/>
    </vehicle>
    <vehicle id="190" depart="247.00">
        <route edges="gneE3 -gneE2"/>
    </vehicle>
    <vehicle id="191" depart="248.30">
        <route edges="gneE3 -gneE2"/>
    </vehicle>
    <vehicle id="192" depart="249.60">
        <route edges="gneE3 -gneE1"/>
    </vehicle>
    <vehicle id="193" depart="250.90">
        <route edges="gneE3 -gneE1"/>
    </vehicle>
    <vehicle id="194" depart="252.20">
        <route edges="gneE2 -gneE1"/>
    </vehicle>
    <vehicle id="197" depart="256.10">
        <route edges="gneE1 -gneE2"/>
    </vehicle>
    <vehicle id="198" depart="257.40">
        <route edges="gneE1 -gneE2"/>
    </vehicle>
    <vehicle id="199" depart="258.70">
        <route edges="gneE3 -gneE2"/>
    </vehicle>
    <vehicle id="203" depart="263.90">
        <route edges="gneE3 -gneE2"/>
    </vehicle>
    <vehicle id="204" depart="265.20">
        <route edges="gneE1 -gneE2"/>
    </vehicle>
    <vehicle id="205" depart="266.50">
        <route edges="gneE3 -gneE1"/>
    </vehicle>
    <vehicle id="206" depart="267.80">
        <route edges="gneE1 -gneE2"/>
    </vehicle>
    <vehicle id="207" depart="269.10">
        <route edges="gneE1 -gneE2"/>
    </vehicle>
    <vehicle id="208" depart="270.40">
        <route edges="gneE3 -gneE2"/>
    </vehicle>
    <vehicle id="212" depart="275.60">
        <route edges="gneE1 -gneE2"/>
    </vehicle>
    <vehicle id="213" depart="276.90">
        <route edges="gneE2 -gneE1"/>
    </vehicle>
    <vehicle id="215" depart="279.50">
        <route edges="gneE2 -gneE1"/>
    </vehicle>
    <vehicle id="216" depart="280.80">
        <route edges="gneE3 -gneE2"/>
    </vehicle>
    <vehicle id="217" depart="282.10">
        <route edges="gneE3 -gneE2"/>
    </vehicle>
    <vehicle id="222" depart="288.60">
        <route edges="gneE2 -gneE1"/>
    </vehicle>
    <vehicle id="223" depart="289.90">
        <route edges="gneE2 -gneE1"/>
    </vehicle>
    <vehicle id="230" depart="299.00">
        <route edges="gneE3 -gneE1"/>
    </vehicle>
    <vehicle id="231" depart="300.30">
        <route edges="gneE3 -gneE2"/>
    </vehicle>
    <vehicle id="233" depart="302.90">
        <route edges="gneE3 -gneE2"/>
    </vehicle>
    <vehicle id="234" depart="304.20">
        <route edges="gneE2 -gneE1"/>
    </vehicle>
    <vehicle id="235" depart="305.50">
        <route edges="gneE1 -gneE2"/>
    </vehicle>
    <vehicle id="236" depart="306.80">
        <route edges="gneE1 -gneE2"/>
    </vehicle>
    <vehicle id="238" depart="309.40">
        <route edges="gneE3 -gneE1"/>
    </vehicle>
    <vehicle id="239" depart="310.70">
        <route edges="gneE3 -gneE2"/>
    </vehicle>
    <vehicle id="242" depart="314.60">
        <route edges="gneE2 -gneE1"/>
    </vehicle>
    <vehicle id="244" depart="317.20">
        <route edges="gneE1 -gneE2"/>
    </vehicle>
    <vehicle id="245" depart="318.50">
        <route edges="gneE1 -gneE2"/>
    </vehicle>
    <vehicle id="247" depart="321.10">
        <route edges="gneE2 -gneE1"/>
    </vehicle>
    <vehicle id="248" depart="322.40">
        <route edges="gneE2 -gneE1"/>
    </vehicle>
    <vehicle id="250" depart="325.00">
        <route edges="gneE3 -gneE1"/>
    </vehicle>
    <vehicle id="252" depart="327.60">
        <route edges="gneE2 -gneE1"/>
    </vehicle>
    <vehicle id="253" depart="328.90">
        <route edges="gneE3 -gneE2"/>
    </vehicle>
    <vehicle id="254" depart="330.20">
        <route edges="gneE3 -gneE1"/>
    </vehicle>
    <vehicle id="255" depart="331.50">
        <route edges="gneE3 -gneE2"/>
    </vehicle>
    <vehicle id="257" depart="334.10">
        <route edges="gneE2 -gneE1"/>
    </vehicle>
    <vehicle id="258" depart="335.40">
        <route edges="gneE3 -gneE1"/>
    </vehicle>
    <vehicle id="260" depart="338.00">
        <route edges="gneE3 -gneE1"/>
    </vehicle>
    <vehicle id="261" depart="339.30">
        <route edges="gneE3 -gneE2"/>
    </vehicle>
    <vehicle id="262" depart="340.60">
        <route edges="gneE3 -gneE1"/>
    </vehicle>
    <vehicle id="263" depart="341.90">
        <route edges="gneE3 -gneE2"/>
    </vehicle>
    <vehicle id="265" depart="344.50">
        <route edges="gneE1 -gneE2"/>
    </vehicle>
    <vehicle id="269" depart="349.70">
        <route edges="gneE1 -gneE2"/>
    </vehicle>
    <vehicle id="270" depart="351.00">
        <route edges="gneE3 -gneE1"/>
    </vehicle>
    <vehicle id="271" depart="352.30">
        <route edges="gneE2 -gneE1"/>
    </vehicle>
    <vehicle id="272" depart="353.60">
        <route edges="gneE1 -gneE2"/>
    </vehicle>
    <vehicle id="273" depart="354.90">
        <route edges="gneE3 -gneE1"/>
    </vehicle>
    <vehicle id="275" depart="357.50">
        <route edges="gneE1 -gneE2"/>
    </vehicle>
    <vehicle id="276" depart="358.80">
        <route edges="gneE2 -gneE1"/>
    </vehicle>
    <vehicle id="278" depart="361.40">
        <route edges="gneE2 -gneE1"/>
    </vehicle>
    <vehicle id="279" depart="362.70">
        <route edges="gneE1 -gneE2"/>
    </vehicle>
    <vehicle id="282" depart="366.60">
        <route edges="gneE2 -gneE1"/>
    </vehicle>
    <vehicle id="283" depart="367.90">
        <route edges="gneE3 -gneE2"/>
    </vehicle>
    <vehicle id="284" depart="369.20">
        <route edges="gneE2 -gneE1"/>
    </vehicle>
    <vehicle id="286" depart="371.80">
        <route edges="gneE2 -gneE1"/>
    </vehicle>
    <vehicle id="291" depart="378.30">
        <route edges="gneE2 -gneE1"/>
    </vehicle>
    <vehicle id="292" depart="379.60">
        <route edges="gneE3 -gneE1"/>
    </vehicle>
    <vehicle id="294" depart="382.20">
        <route edges="gneE2 -gneE1"/>
    </vehicle>
    <vehicle id="296" depart="384.80">
        <route edges="gneE2 -gneE1"/>
    </vehicle>
    <vehicle id="297" depart="386.10">
        <route edges="gneE2 -gneE1"/>
    </vehicle>
    <vehicle id="298" depart="387.40">
        <route edges="gneE3 -gneE1"/>
    </vehicle>
    <vehicle id="299" depart="388.70">
        <route edges="gneE3 -gneE1"/>
    </vehicle>
    <vehicle id="300" depart="390.00">
        <route edges="gneE3 -gneE1"/>
    </vehicle>
    <vehicle id="301" depart="391.30">
        <route edges="gneE3 -gneE1"/>
    </vehicle>
    <vehicle id="302" depart="392.60">
        <route edges="gneE2 -gneE1"/>
    </vehicle>
    <vehicle id="303" depart="393.90">
        <route edges="gneE1 -gneE2"/>
    </vehicle>
    <vehicle id="304" depart="395.20">
        <route edges="gneE1 -gneE2"/>
    </vehicle>
    <vehicle id="305" depart="396.50">
        <route edges="gneE3 -gneE1"/>
    </vehicle>
    <vehicle id="306" depart="397.80">
        <route edges="gneE1 -gneE2"/>
    </vehicle>
    <vehicle id="307" depart="399.10">
        <route edges="gneE3 -gneE1"/>
    </vehicle>
    <vehicle id="308" depart="400.40">
        <route edges="gneE2 -gneE1"/>
    </vehicle>
    <vehicle id="309" depart="401.70">
        <route edges="gneE1 -gneE2"/>
    </vehicle>
    <vehicle id="310" depart="403.00">
        <route edges="gneE3 -gneE1"/>
    </vehicle>
    <vehicle id="311" depart="404.30">
        <route edges="gneE2 -gneE1"/>
    </vehicle>
    <vehicle id="312" depart="405.60">
        <route edges="gneE3 -gneE2"/>
    </vehicle>
    <vehicle id="313" depart="406.90">
        <route edges="gneE1 -gneE2"/>
    </vehicle>
    <vehicle id="314" depart="408.20">
        <route edges="gneE2 -gneE1"/>
    </vehicle>
    <vehicle id="318" depart="413.40">
        <route edges="gneE3 -gneE1"/>
    </vehicle>
    <vehicle id="319" depart="414.70">
        <route edges="gneE3 -gneE1"/>
    </vehicle>
    <vehicle id="321" depart="417.30">
        <route edges="gneE3 -gneE2"/>
    </vehicle>
    <vehicle id="323" depart="419.90">
        <route edges="gneE2 -gneE1"/>
    </vehicle>
    <vehicle id="325" depart="422.50">
        <route edges="gneE2 -gneE1"/>
    </vehicle>
    <vehicle id="326" depart="423.80">
        <route edges="gneE2 -gneE1"/>
    </vehicle>
    <vehicle id="327" depart="425.10">
        <route edges="gneE2 -gneE1"/>
    </vehicle>
    <vehicle id="329" depart="427.70">
        <route edges="gneE1 -gneE2"/>
    </vehicle>
    <vehicle id="330" depart="429.00">
        <route edges="gneE2 -gneE1"/>
    </vehicle>
    <vehicle id="331" depart="430.30">
        <route edges="gneE3 -gneE1"/>
    </vehicle>
    <vehicle id="332" depart="431.60">
        <route edges="gneE2 -gneE1"/>
    </vehicle>
    <vehicle id="335" depart="435.50">
        <route edges="gneE3 -gneE1"/>
    </vehicle>
    <vehicle id="337" depart="438.10">
        <route edges="gneE3 -gneE2"/>
    </vehicle>
    <vehicle id="338" depart="439.40">
        <route edges="gneE2 -gneE1"/>
    </vehicle>
    <vehicle id="339" depart="440.70">
        <route edges="gneE2 -gneE1"/>
    </vehicle>
    <vehicle id="340" depart="442.00">
        <route edges="gneE2 -gneE1"/>
    </vehicle>
    <vehicle id="341" depart="443.30">
        <route edges="gneE1 -gneE2"/>
    </vehicle>
    <vehicle id="342" depart="444.60">
        <route edges="gneE2 -gneE1"/>
    </vehicle>
    <vehicle id="343" depart="445.90">
        <route edges="gneE3 -gneE2"/>
    </vehicle>
    <vehicle id="344" depart="447.20">
        <route edges="gneE3 -gneE2"/>
    </vehicle>
    <vehicle id="345" depart="448.50">
        <route edges="gneE3 -gneE2"/>
    </vehicle>
    <vehicle id="346" depart="449.80">
        <route edges="gneE2 -gneE1"/>
    </vehicle>
    <vehicle id="348" depart="452.40">
        <route edges="gneE1 -gneE2"/>
    </vehicle>
    <vehicle id="349" depart="453.70">
        <route edges="gneE3 -gneE2"/>
    </vehicle>
    <vehicle id="350" depart="455.00">
        <route edges="gneE3 -gneE2"/>
    </vehicle>
    <vehicle id="352" depart="457.60">
        <route edges="gneE1 -gneE2"/>
    </vehicle>
    <vehicle id="353" depart="458.90">
        <route edges="gneE1 -gneE2"/>
    </vehicle>
    <vehicle id="354" depart="460.20">
        <route edges="gneE3 -gneE1"/>
    </vehicle>
    <vehicle id="355" depart="461.50">
        <route edges="gneE2 -gneE1"/>
    </vehicle>
    <vehicle id="357" depart="464.10">
        <route edges="gneE3 -gneE2"/>
    </vehicle>
    <vehicle id="358" depart="465.40">
        <route edges="gneE1 -gneE2"/>
    </vehicle>
    <vehicle id="359" depart="466.70">
        <route edges="gneE2 -gneE1"/>
    </vehicle>
    <vehicle id="360" depart="468.00">
        <route edges="gneE3 -gneE1"/>
    </vehicle>
    <vehicle id="363" depart="471.90">
        <route edges="gneE2 -gneE1"/>
    </vehicle>
    <vehicle id="364" depart="473.20">
        <route edges="gneE3 -gneE2"/>
    </vehicle>
    <vehicle id="366" depart="475.80">
        <route edges="gneE3 -gneE2"/>
    </vehicle>
    <vehicle id="367" depart="477.10">
        <route edges="gneE2 -gneE1"/>
    </vehicle>
    <vehicle id="368" depart="478.40">
        <route edges="gneE2 -gneE1"/>
    </vehicle>
    <vehicle id="369" depart="479.70">
        <route edges="gneE3 -gneE2"/>
    </vehicle>
    <vehicle id="370" depart="481.00">
        <route edges="gneE3 -gneE2"/>
    </vehicle>
    <vehicle id="372" depart="483.60">
        <route edges="gneE3 -gneE1"/>
    </vehicle>
    <vehicle id="373" depart="484.90">
        <route edges="gneE3 -gneE1"/>
    </vehicle>
    <vehicle id="375" depart="487.50">
        <route edges="gneE3 -gneE1"/>
    </vehicle>
    <vehicle id="377" depart="490.10">
        <route edges="gneE1 -gneE2"/>
    </vehicle>
    <vehicle id="379" depart="492.70">
        <route edges="gneE3 -gneE1"/>
    </vehicle>
    <vehicle id="380" depart="494.00">
        <route edges="gneE1 -gneE2"/>
    </vehicle>
    <vehicle id="381" depart="495.30">
        <route edges="gneE1 -gneE2"/>
    </vehicle>
    <vehicle id="384" depart="499.20">
        <route edges="gneE1 -gneE2"/>
    </vehicle>
    <vehicle id="385" depart="500.50">
        <route edges="gneE3 -gneE2"/>
    </vehicle>
    <vehicle id="386" depart="501.80">
        <route edges="gneE1 -gneE2"/>
    </vehicle>
    <vehicle id="387" depart="503.10">
        <route edges="gneE3 -gneE1"/>
    </vehicle>
    <vehicle id="388" depart="504.40">
        <route edges="gneE1 -gneE2"/>
    </vehicle>
    <vehicle id="389" depart="505.70">
        <route edges="gneE3 -gneE2"/>
    </vehicle>
    <vehicle id="391" depart="508.30">
        <route edges="gneE1 -gneE2"/>
    </vehicle>
    <vehicle id="392" depart="509.60">
        <route edges="gneE2 -gneE1"/>
    </vehicle>
    <vehicle id="393" depart="510.90">
        <route edges="gneE3 -gneE1"/>
    </vehicle>
    <vehicle id="394" depart="512.20">
        <route edges="gneE2 -gneE1"/>
    </vehicle>
    <vehicle id="395" depart="513.50">
        <route edges="gneE2 -gneE1"/>
    </vehicle>
    <vehicle id="401" depart="521.30">
        <route edges="gneE3 -gneE1"/>
    </vehicle>
    <vehicle id="402" depart="522.60">
        <route edges="gneE1 -gneE2"/>
    </vehicle>
    <vehicle id="404" depart="525.20">
        <route edges="gneE2 -gneE1"/>
    </vehicle>
    <vehicle id="407" depart="529.10">
        <route edges="gneE3 -gneE2"/>
    </vehicle>
    <vehicle id="408" depart="530.40">
        <route edges="gneE3 -gneE2"/>
    </vehicle>
    <vehicle id="410" depart="533.00">
        <route edges="gneE2 -gneE1"/>
    </vehicle>
    <vehicle id="412" depart="535.60">
        <route edges="gneE1 -gneE2"/>
    </vehicle>
    <vehicle id="413" depart="536.90">
        <route edges="gneE3 -gneE1"/>
    </vehicle>
    <vehicle id="414" depart="538.20">
        <route edges="gneE1 -gneE2"/>
    </vehicle>
    <vehicle id="415" depart="539.50">
        <route edges="gneE3 -gneE1"/>
    </vehicle>
    <vehicle id="417" depart="542.10">
        <route edges="gneE1 -gneE2"/>
    </vehicle>
    <vehicle id="418" depart="543.40">
        <route edges="gneE1 -gneE2"/>
    </vehicle>
    <vehicle id="420" depart="546.00">
        <route edges="gneE2 -gneE1"/>
    </vehicle>
    <vehicle id="422" depart="548.60">
        <route edges="gneE3 -gneE2"/>
    </vehicle>
    <vehicle id="423" depart="549.90">
        <route edges="gneE3 -gneE2"/>
    </vehicle>
    <vehicle id="424" depart="551.20">
        <route edges="gneE3 -gneE2"/>
    </vehicle>
    <vehicle id="425" depart="552.50">
        <route edges="gneE1 -gneE2"/>
    </vehicle>
    <vehicle id="426" depart="553.80">
        <route edges="gneE3 -gneE2"/>
    </vehicle>
    <vehicle id="427" depart="555.10">
        <route edges="gneE3 -gneE1"/>
    </vehicle>
    <vehicle id="428" depart="556.40">
        <route edges="gneE1 -gneE2"/>
    </vehicle>
    <vehicle id="432" depart="561.60">
        <route edges="gneE3 -gneE2"/>
    </vehicle>
    <vehicle id="433" depart="562.90">
        <route edges="gneE1 -gneE2"/>
    </vehicle>
    <vehicle id="435" depart="565.50">
        <route edges="gneE2 -gneE1"/>
    </vehicle>
    <vehicle id="436" depart="566.80">
        <route edges="gneE1 -gneE2"/>
    </vehicle>
    <vehicle id="437" depart="568.10">
        <route edges="gneE3 -gneE2"/>
    </vehicle>
    <vehicle id="438" depart="569.40">
        <route edges="gneE1 -gneE2"/>
    </vehicle>
    <vehicle id="439" depart="570.70">
        <route edges="gneE2 -gneE1"/>
    </vehicle>
    <vehicle id="440" depart="572.00">
        <route edges="gneE2 -gneE1"/>
    </vehicle>
    <vehicle id="441" depart="573.30">
        <route edges="gneE3 -gneE1"/>
    </vehicle>
    <vehicle id="442" depart="574.60">
        <route edges="gneE3 -gneE2"/>
    </vehicle>
    <vehicle id="445" depart="578.50">
        <route edges="gneE3 -gneE1"/>
    </vehicle>
    <vehicle id="447" depart="581.10">
        <route edges="gneE1 -gneE2"/>
    </vehicle>
    <vehicle id="448" depart="582.40">
        <route edges="gneE3 -gneE2"/>
    </vehicle>
    <vehicle id="449" depart="583.70">
        <route edges="gneE3 -gneE2"/>
    </vehicle>
    <vehicle id="450" depart="585.00">
        <route edges="gneE2 -gneE1"/>
    </vehicle>
    <vehicle id="451" depart="586.30">
        <route edges="gneE2 -gneE1"/>
    </vehicle>
    <vehicle id="453" depart="588.90">
        <route edges="gneE2 -gneE1"/>
    </vehicle>
    <vehicle id="454" depart="590.20">
        <route edges="gneE1 -gneE2"/>
    </vehicle>
    <vehicle id="455" depart="591.50">
        <route edges="gneE1 -gneE2"/>
    </vehicle>
    <vehicle id="456" depart="592.80">
        <route edges="gneE1 -gneE2"/>
    </vehicle>
    <vehicle id="457" depart="594.10">
        <route edges="gneE1 -gneE2"/>
    </vehicle>
    <vehicle id="459" depart="596.70">
        <route edges="gneE3 -gneE2"/>
    </vehicle>
    <vehicle id="460" depart="598.00">
        <route edges="gneE3 -gneE2"/>
    </vehicle>
    <vehicle id="464" depart="603.20">
        <route edges="gneE3 -gneE2"/>
    </vehicle>
    <vehicle id="465" depart="604.50">
        <route edges="gneE3 -gneE1"/>
    </vehicle>