<?xml version="1.0" encoding="UTF-8"?>

<!-- generated on Sun May  6 19:48:12 2018 by SUMO duarouter Version 0.30.0
<?xml version="1.0" encoding="UTF-8"?>

<configuration xmlns:xsi="http://www.w3.org/2001/XMLSchema-instance" xsi:noNamespaceSchemaLocation="http://sumo.dlr.de/xsd/duarouterConfiguration.xsd">

    <input>
        <net-file value="simple_T/simple_T.net.xml"/>
        <route-files value="trips.trips.xml"/>
    </input>

    <output>
        <output-file value="simple_T/route/simple_T-1.0-0.rou.xml"/>
    </output>

    <processing>
        <ignore-errors value="true"/>
    </processing>

    <time>
        <begin value="0.0"/>
        <end value="1000.0"/>
    </time>

    <report>
        <no-warnings value="true"/>
        <no-step-log value="true"/>
    </report>

</configuration>
-->

<routes xmlns:xsi="http://www.w3.org/2001/XMLSchema-instance" xsi:noNamespaceSchemaLocation="http://sumo.dlr.de/xsd/routes_file.xsd">
    <vehicle id="0" depart="0.00">
        <route edges="gneE2 -gneE1"/>
    </vehicle>
    <vehicle id="2" depart="2.00">
        <route edges="gneE1 -gneE2"/>
    </vehicle>
    <vehicle id="4" depart="4.00">
        <route edges="gneE1 -gneE2"/>
    </vehicle>
    <vehicle id="5" depart="5.00">
        <route edges="gneE2 -gneE1"/>
    </vehicle>
    <vehicle id="6" depart="6.00">
        <route edges="gneE2 -gneE1"/>
    </vehicle>
    <vehicle id="8" depart="8.00">
        <route edges="gneE3 -gneE2"/>
    </vehicle>
    <vehicle id="9" depart="9.00">
        <route edges="gneE2 -gneE1"/>
    </vehicle>
    <vehicle id="11" depart="11.00">
        <route edges="gneE1 -gneE2"/>
    </vehicle>
    <vehicle id="13" depart="13.00">
        <route edges="gneE1 -gneE2"/>
    </vehicle>
    <vehicle id="14" depart="14.00">
        <route edges="gneE3 -gneE2"/>
    </vehicle>
    <vehicle id="15" depart="15.00">
        <route edges="gneE2 -gneE1"/>
    </vehicle>
    <vehicle id="17" depart="17.00">
        <route edges="gneE2 -gneE1"/>
    </vehicle>
    <vehicle id="19" depart="19.00">
        <route edges="gneE2 -gneE1"/>
    </vehicle>
    <vehicle id="20" depart="20.00">
        <route edges="gneE1 -gneE2"/>
    </vehicle>
    <vehicle id="21" depart="21.00">
        <route edges="gneE3 -gneE2"/>
    </vehicle>
    <vehicle id="22" depart="22.00">
        <route edges="gneE2 -gneE1"/>
    </vehicle>
    <vehicle id="24" depart="24.00">
        <route edges="gneE3 -gneE1"/>
    </vehicle>
    <vehicle id="25" depart="25.00">
        <route edges="gneE3 -gneE2"/>
    </vehicle>
    <vehicle id="26" depart="26.00">
        <route edges="gneE3 -gneE1"/>
    </vehicle>
    <vehicle id="27" depart="27.00">
        <route edges="gneE1 -gneE2"/>
    </vehicle>
    <vehicle id="30" depart="30.00">
        <route edges="gneE3 -gneE1"/>
    </vehicle>
    <vehicle id="31" depart="31.00">
        <route edges="gneE1 -gneE2"/>
    </vehicle>
    <vehicle id="32" depart="32.00">
        <route edges="gneE3 -gneE2"/>
    </vehicle>
    <vehicle id="33" depart="33.00">
        <route edges="gneE1 -gneE2"/>
    </vehicle>
    <vehicle id="34" depart="34.00">
        <route edges="gneE3 -gneE1"/>
    </vehicle>
    <vehicle id="36" depart="36.00">
        <route edges="gneE3 -gneE1"/>
    </vehicle>
    <vehicle id="38" depart="38.00">
        <route edges="gneE1 -gneE2"/>
    </vehicle>
    <vehicle id="39" depart="39.00">
        <route edges="gneE3 -gneE2"/>
    </vehicle>
    <vehicle id="40" depart="40.00">
        <route edges="gneE1 -gneE2"/>
    </vehicle>
    <vehicle id="41" depart="41.00">
        <route edges="gneE3 -gneE1"/>
    </vehicle>
    <vehicle id="42" depart="42.00">
        <route edges="gneE3 -gneE2"/>
    </vehicle>
    <vehicle id="44" depart="44.00">
        <route edges="gneE3 -gneE1"/>
    </vehicle>
    <vehicle id="45" depart="45.00">
        <route edges="gneE3 -gneE1"/>
    </vehicle>
    <vehicle id="46" depart="46.00">
        <route edges="gneE3 -gneE1"/>
    </vehicle>
    <vehicle id="48" depart="48.00">
        <route edges="gneE1 -gneE2"/>
    </vehicle>
    <vehicle id="49" depart="49.00">
        <route edges="gneE2 -gneE1"/>
    </vehicle>
    <vehicle id="51" depart="51.00">
        <route edges="gneE3 -gneE1"/>
    </vehicle>
    <vehicle id="53" depart="53.00">
        <route edges="gneE3 -gneE2"/>
    </vehicle>
    <vehicle id="55" depart="55.00">
        <route edges="gneE3 -gneE2"/>
    </vehicle>
    <vehicle id="57" depart="57.00">
        <route edges="gneE3 -gneE2"/>
    </vehicle>
    <vehicle id="58" depart="58.00">
        <route edges="gneE3 -gneE1"/>
    </vehicle>
    <vehicle id="59" depart="59.00">
        <route edges="gneE2 -gneE1"/>
    </vehicle>
    <vehicle id="60" depart="60.00">
        <route edges="gneE2 -gneE1"/>
    </vehicle>
    <vehicle id="61" depart="61.00">
        <route edges="gneE3 -gneE1"/>
    </vehicle>
    <vehicle id="62" depart="62.00">
        <route edges="gneE3 -gneE2"/>
    </vehicle>
    <vehicle id="65" depart="65.00">
        <route edges="gneE3 -gneE1"/>
    </vehicle>
    <vehicle id="66" depart="66.00">
        <route edges="gneE3 -gneE2"/>
    </vehicle>
    <vehicle id="68" depart="68.00">
        <route edges="gneE3 -gneE2"/>
    </vehicle>
    <vehicle id="70" depart="70.00">
        <route edges="gneE3 -gneE1"/>
    </vehicle>
    <vehicle id="71" depart="71.00">
        <route edges="gneE1 -gneE2"/>
    </vehicle>
    <vehicle id="72" depart="72.00">
        <route edges="gneE3 -gneE2"/>
    </vehicle>
    <vehicle id="74" depart="74.00">
        <route edges="gneE3 -gneE2"/>
    </vehicle>
    <vehicle id="75" depart="75.00">
        <route edges="gneE2 -gneE1"/>
    </vehicle>
    <vehicle id="76" depart="76.00">
        <route edges="gneE1 -gneE2"/>
    </vehicle>
    <vehicle id="77" depart="77.00">
        <route edges="gneE3 -gneE2"/>
    </vehicle>
    <vehicle id="78" depart="78.00">
        <route edges="gneE3 -gneE2"/>
    </vehicle>
    <vehicle id="79" depart="79.00">
        <route edges="gneE3 -gneE1"/>
    </vehicle>
    <vehicle id="80" depart="80.00">
        <route edges="gneE3 -gneE1"/>
    </vehicle>
    <vehicle id="81" depart="81.00">
        <route edges="gneE3 -gneE2"/>
    </vehicle>
    <vehicle id="82" depart="82.00">
        <route edges="gneE1 -gneE2"/>
    </vehicle>
    <vehicle id="83" depart="83.00">
        <route edges="gneE1 -gneE2"/>
    </vehicle>
    <vehicle id="84" depart="84.00">
        <route edges="gneE1 -gneE2"/>
    </vehicle>
    <vehicle id="85" depart="85.00">
        <route edges="gneE3 -gneE2"/>
    </vehicle>
    <vehicle id="87" depart="87.00">
        <route edges="gneE3 -gneE2"/>
    </vehicle>
    <vehicle id="91" depart="91.00">
        <route edges="gneE3 -gneE2"/>
    </vehicle>
    <vehicle id="92" depart="92.00">
        <route edges="gneE1 -gneE2"/>
    </vehicle>
    <vehicle id="93" depart="93.00">
        <route edges="gneE3 -gneE1"/>
    </vehicle>
    <vehicle id="95" depart="95.00">
        <route edges="gneE3 -gneE2"/>
    </vehicle>
    <vehicle id="96" depart="96.00">
        <route edges="gneE3 -gneE2"/>
    </vehicle>
    <vehicle id="98" depart="98.00">
        <route edges="gneE1 -gneE2"/>
    </vehicle>
    <vehicle id="99" depart="99.00">
        <route edges="gneE2 -gneE1"/>
    </vehicle>
    <vehicle id="100" depart="100.00">
        <route edges="gneE2 -gneE1"/>
    </vehicle>
    <vehicle id="101" depart="101.00">
        <route edges="gneE3 -gneE2"/>
    </vehicle>
    <vehicle id="102" depart="102.00">
        <route edges="gneE3 -gneE1"/>
    </vehicle>
    <vehicle id="103" depart="103.00">
        <route edges="gneE2 -gneE1"/>
    </vehicle>
    <vehicle id="104" depart="104.00">
        <route edges="gneE1 -gneE2"/>
    </vehicle>
    <vehicle id="105" depart="105.00">
        <route edges="gneE3 -gneE2"/>
    </vehicle>
    <vehicle id="107" depart="107.00">
        <route edges="gneE1 -gneE2"/>
    </vehicle>
    <vehicle id="108" depart="108.00">
        <route edges="gneE2 -gneE1"/>
    </vehicle>
    <vehicle id="109" depart="109.00">
        <route edges="gneE2 -gneE1"/>
    </vehicle>
    <vehicle id="110" depart="110.00">
        <route edges="gneE1 -gneE2"/>
    </vehicle>
    <vehicle id="112" depart="112.00">
        <route edges="gneE2 -gneE1"/>
    </vehicle>
    <vehicle id="113" depart="113.00">
        <route edges="gneE2 -gneE1"/>
    </vehicle>
    <vehicle id="116" depart="116.00">
        <route edges="gneE2 -gneE1"/>
    </vehicle>
    <vehicle id="117" depart="117.00">
        <route edges="gneE3 -gneE2"/>
    </vehicle>
    <vehicle id="119" depart="119.00">
        <route edges="gneE1 -gneE2"/>
    </vehicle>
    <vehicle id="121" depart="121.00">
        <route edges="gneE3 -gneE2"/>
    </vehicle>
    <vehicle id="122" depart="122.00">
        <route edges="gneE3 -gneE2"/>
    </vehicle>
    <vehicle id="124" depart="124.00">
        <route edges="gneE2 -gneE1"/>
    </vehicle>
    <vehicle id="126" depart="126.00">
        <route edges="gneE2 -gneE1"/>
    </vehicle>
    <vehicle id="127" depart="127.00">
        <route edges="gneE3 -gneE2"/>
    </vehicle>
    <vehicle id="128" depart="128.00">
        <route edges="gneE3 -gneE1"/>
    </vehicle>
    <vehicle id="129" depart="129.00">
        <route edges="gneE3 -gneE2"/>
    </vehicle>
    <vehicle id="132" depart="132.00">
        <route edges="gneE3 -gneE2"/>
    </vehicle>
    <vehicle id="133" depart="133.00">
        <route edges="gneE2 -gneE1"/>
    </vehicle>
    <vehicle id="135" depart="135.00">
        <route edges="gneE3 -gneE1"/>
    </vehicle>
    <vehicle id="137" depart="137.00">
        <route edges="gneE1 -gneE2"/>
    </vehicle>
    <vehicle id="138" depart="138.00">
        <route edges="gneE2 -gneE1"/>
    </vehicle>
    <vehicle id="139" depart="139.00">
        <route edges="gneE3 -gneE1"/>
    </vehicle>
    <vehicle id="142" depart="142.00">
        <route edges="gneE3 -gneE2"/>
    </vehicle>
    <vehicle id="143" depart="143.00">
        <route edges="gneE1 -gneE2"/>
    </vehicle>
    <vehicle id="145" depart="145.00">
        <route edges="gneE2 -gneE1"/>
    </vehicle>
    <vehicle id="146" depart="146.00">
        <route edges="gneE3 -gneE2"/>
    </vehicle>
    <vehicle id="147" depart="147.00">
        <route edges="gneE2 -gneE1"/>
    </vehicle>
    <vehicle id="149" depart="149.00">
        <route edges="gneE2 -gneE1"/>
    </vehicle>
    <vehicle id="150" depart="150.00">
        <route edges="gneE2 -gneE1"/>
    </vehicle>
    <vehicle id="153" depart="153.00">
        <route edges="gneE1 -gneE2"/>
    </vehicle>
    <vehicle id="154" depart="154.00">
        <route edges="gneE1 -gneE2"/>
    </vehicle>
    <vehicle id="155" depart="155.00">
        <route edges="gneE3 -gneE2"/>
    </vehicle>
    <vehicle id="158" depart="158.00">
        <route edges="gneE3 -gneE2"/>
    </vehicle>
    <vehicle id="160" depart="160.00">
        <route edges="gneE2 -gneE1"/>
    </vehicle>
    <vehicle id="161" depart="161.00">
        <route edges="gneE2 -gneE1"/>
    </vehicle>
    <vehicle id="162" depart="162.00">
        <route edges="gneE3 -gneE2"/>
    </vehicle>
    <vehicle id="163" depart="163.00">
        <route edges="gneE2 -gneE1"/>
    </vehicle>
    <vehicle id="164" depart="164.00">
        <route edges="gneE2 -gneE1"/>
    </vehicle>
    <vehicle id="166" depart="166.00">
        <route edges="gneE3 -gneE1"/>
    </vehicle>
    <vehicle id="167" depart="167.00">
        <route edges="gneE2 -gneE1"/>
    </vehicle>
    <vehicle id="168" depart="168.00">
        <route edges="gneE3 -gneE1"/>
    </vehicle>
    <vehicle id="172" depart="172.00">
        <route edges="gneE2 -gneE1"/>
    </vehicle>
    <vehicle id="173" depart="173.00">
        <route edges="gneE1 -gneE2"/>
    </vehicle>
    <vehicle id="174" depart="174.00">
        <route edges="gneE3 -gneE1"/>
    </vehicle>
    <vehicle id="175" depart="175.00">
        <route edges="gneE2 -gneE1"/>
    </vehicle>
    <vehicle id="176" depart="176.00">
        <route edges="gneE2 -gneE1"/>
    </vehicle>
    <vehicle id="178" depart="178.00">
        <route edges="gneE3 -gneE2"/>
    </vehicle>
    <vehicle id="179" depart="179.00">
        <route edges="gneE3 -gneE2"/>
    </vehicle>
    <vehicle id="180" depart="180.00">
        <route edges="gneE3 -gneE1"/>
    </vehicle>
    <vehicle id="181" depart="181.00">
        <route edges="gneE3 -gneE1"/>
    </vehicle>
    <vehicle id="183" depart="183.00">
        <route edges="gneE2 -gneE1"/>
    </vehicle>
    <vehicle id="184" depart="184.00">
        <route edges="gneE3 -gneE2"/>
    </vehicle>
    <vehicle id="185" depart="185.00">
        <route edges="gneE1 -gneE2"/>
    </vehicle>
    <vehicle id="186" depart="186.00">
        <route edges="gneE3 -gneE1"/>
    </vehicle>
    <vehicle id="187" depart="187.00">
        <route edges="gneE2 -gneE1"/>
    </vehicle>
    <vehicle id="190" depart="190.00">
        <route edges="gneE3 -gneE2"/>
    </vehicle>
    <vehicle id="191" depart="191.00">
        <route edges="gneE2 -gneE1"/>
    </vehicle>
    <vehicle id="192" depart="192.00">
        <route edges="gneE3 -gneE2"/>
    </vehicle>
    <vehicle id="195" depart="195.00">
        <route edges="gneE2 -gneE1"/>
    </vehicle>
    <vehicle id="197" depart="197.00">
        <route edges="gneE2 -gneE1"/>
    </vehicle>
    <vehicle id="198" depart="198.00">
        <route edges="gneE3 -gneE1"/>
    </vehicle>
    <vehicle id="199" depart="199.00">
        <route edges="gneE2 -gneE1"/>
    </vehicle>
    <vehicle id="202" depart="202.00">
        <route edges="gneE3 -gneE1"/>
    </vehicle>
    <vehicle id="203" depart="203.00">
        <route edges="gneE3 -gneE1"/>
    </vehicle>
    <vehicle id="204" depart="204.00">
        <route edges="gneE3 -gneE2"/>
    </vehicle>
    <vehicle id="205" depart="205.00">
        <route edges="gneE1 -gneE2"/>
    </vehicle>
    <vehicle id="207" depart="207.00">
        <route edges="gneE3 -gneE2"/>
    </vehicle>
    <vehicle id="208" depart="208.00">
        <route edges="gneE1 -gneE2"/>
    </vehicle>
    <vehicle id="209" depart="209.00">
        <route edges="gneE3 -gneE1"/>
    </vehicle>
    <vehicle id="210" depart="210.00">
        <route edges="gneE3 -gneE2"/>
    </vehicle>
    <vehicle id="211" depart="211.00">
        <route edges="gneE1 -gneE2"/>
    </vehicle>
    <vehicle id="212" depart="212.00">
        <route edges="gneE3 -gneE2"/>
    </vehicle>
    <vehicle id="213" depart="213.00">
        <route edges="gneE3 -gneE2"/>
    </vehicle>
    <vehicle id="214" depart="214.00">
        <route edges="gneE2 -gneE1"/>
    </vehicle>
    <vehicle id="215" depart="215.00">
        <route edges="gneE3 -gneE1"/>
    </vehicle>
    <vehicle id="219" depart="219.00">
        <route edges="gneE2 -gneE1"/>
    </vehicle>
    <vehicle id="220" depart="220.00">
        <route edges="gneE3 -gneE2"/>
    </vehicle>
    <vehicle id="223" depart="223.00">
        <route edges="gneE2 -gneE1"/>
    </vehicle>
    <vehicle id="224" depart="224.00">
        <route edges="gneE1 -gneE2"/>
    </vehicle>
    <vehicle id="225" depart="225.00">
        <route edges="gneE3 -gneE1"/>
    </vehicle>
    <vehicle id="226" depart="226.00">
        <route edges="gneE3 -gneE1"/>
    </vehicle>
    <vehicle id="229" depart="229.00">
        <route edges="gneE2 -gneE1"/>
    </vehicle>
    <vehicle id="230" depart="230.00">
        <route edges="gneE2 -gneE1"/>
    </vehicle>
    <vehicle id="231" depart="231.00">
        <route edges="gneE3 -gneE1"/>
    </vehicle>
    <vehicle id="232" depart="232.00">
        <route edges="gneE1 -gneE2"/>
    </vehicle>
    <vehicle id="233" depart="233.00">
        <route edges="gneE1 -gneE2"/>
    </vehicle>
    <vehicle id="234" depart="234.00">
        <route edges="gneE2 -gneE1"/>
    </vehicle>
    <vehicle id="236" depart="236.00">
        <route edges="gneE2 -gneE1"/>
    </vehicle>
    <vehicle id="237" depart="237.00">
        <route edges="gneE1 -gneE2"/>
    </vehicle>
    <vehicle id="240" depart="240.00">
        <route edges="gneE3 -gneE2"/>
    </vehicle>
    <vehicle id="241" depart="241.00">
        <route edges="gneE2 -gneE1"/>
    </vehicle>
    <vehicle id="242" depart="242.00">
        <route edges="gneE3 -gneE2"/>
    </vehicle>
    <vehicle id="243" depart="243.00">
        <route edges="gneE1 -gneE2"/>
    </vehicle>
    <vehicle id="244" depart="244.00">
        <route edges="gneE3 -gneE2"/>
    </vehicle>
    <vehicle id="246" depart="246.00">
        <route edges="gneE3 -gneE1"/>
    </vehicle>
    <vehicle id="247" depart="247.00">
        <route edges="gneE3 -gneE1"/>
    </vehicle>
    <vehicle id="248" depart="248.00">
        <route edges="gneE2 -gneE1"/>
    </vehicle>
    <vehicle id="250" depart="250.00">
        <route edges="gneE2 -gneE1"/>
    </vehicle>
    <vehicle id="253" depart="253.00">
        <route edges="gneE1 -gneE2"/>
    </vehicle>
    <vehicle id="257" depart="257.00">
        <route edges="gneE3 -gneE2"/>
    </vehicle>
    <vehicle id="259" depart="259.00">
        <route edges="gneE3 -gneE2"/>
    </vehicle>
    <vehicle id="260" depart="260.00">
        <route edges="gneE1 -gneE2"/>
    </vehicle>
    <vehicle id="261" depart="261.00">
        <route edges="gneE1 -gneE2"/>
    </vehicle>
    <vehicle id="262" depart="262.00">
        <route edges="gneE1 -gneE2"/>
    </vehicle>
    <vehicle id="263" depart="263.00">
        <route edges="gneE2 -gneE1"/>
    </vehicle>
    <vehicle id="264" depart="264.00">
        <route edges="gneE3 -gneE2"/>
    </vehicle>
    <vehicle id="266" depart="266.00">
        <route edges="gneE2 -gneE1"/>
    </vehicle>
    <vehicle id="267" depart="267.00">
        <route edges="gneE2 -gneE1"/>
    </vehicle>
    <vehicle id="268" depart="268.00">
        <route edges="gneE3 -gneE1"/>
    </vehicle>
    <vehicle id="269" depart="269.00">
        <route edges="gneE3 -gneE2"/>
    </vehicle>
    <vehicle id="271" depart="271.00">
        <route edges="gneE2 -gneE1"/>
    </vehicle>
    <vehicle id="273" depart="273.00">
        <route edges="gneE2 -gneE1"/>
    </vehicle>
    <vehicle id="277" depart="277.00">
        <route edges="gneE3 -gneE2"/>
    </vehicle>
    <vehicle id="278" depart="278.00">
        <route edges="gneE1 -gneE2"/>
    </vehicle>
    <vehicle id="279" depart="279.00">
        <route edges="gneE3 -gneE1"/>
    </vehicle>
    <vehicle id="280" depart="280.00">
        <route edges="gneE3 -gneE2"/>
    </vehicle>
    <vehicle id="282" depart="282.00">
        <route edges="gneE3 -gneE1"/>
    </vehicle>
    <vehicle id="285" depart="285.00">
        <route edges="gneE2 -gneE1"/>
    </vehicle>
    <vehicle id="286" depart="286.00">
        <route edges="gneE3 -gneE1"/>
    </vehicle>
    <vehicle id="287" depart="287.00">
        <route edges="gneE3 -gneE1"/>
    </vehicle>
    <vehicle id="289" depart="289.00">
        <route edges="gneE3 -gneE1"/>
    </vehicle>
    <vehicle id="290" depart="290.00">
        <route edges="gneE3 -gneE1"/>
    </vehicle>
    <vehicle id="291" depart="291.00">
        <route edges="gneE1 -gneE2"/>
    </vehicle>
    <vehicle id="292" depart="292.00">
        <route edges="gneE3 -gneE1"/>
    </vehicle>
    <vehicle id="294" depart="294.00">
        <route edges="gneE3 -gneE2"/>
    </vehicle>
    <vehicle id="295" depart="295.00">
        <route edges="gneE2 -gneE1"/>
    </vehicle>
    <vehicle id="296" depart="296.00">
        <route edges="gneE3 -gneE1"/>
    </vehicle>
    <vehicle id="300" depart="300.00">
        <route edges="gneE3 -gneE1"/>
    </vehicle>
    <vehicle id="301" depart="301.00">
        <route edges="gneE3 -gneE1"/>
    </vehicle>
    <vehicle id="302" depart="302.00">
        <route edges="gneE1 -gneE2"/>
    </vehicle>
    <vehicle id="303" depart="303.00">
        <route edges="gneE3 -gneE1"/>
    </vehicle>
    <vehicle id="304" depart="304.00">
        <route edges="gneE3 -gneE1"/>
    </vehicle>
    <vehicle id="305" depart="305.00">
        <route edges="gneE3 -gneE2"/>
    </vehicle>
    <vehicle id="308" depart="308.00">
        <route edges="gneE1 -gneE2"/>
    </vehicle>
    <vehicle id="309" depart="309.00">
        <route edges="gneE3 -gneE1"/>
    </vehicle>
    <vehicle id="310" depart="310.00">
        <route edges="gneE2 -gneE1"/>
    </vehicle>
    <vehicle id="314" depart="314.00">
        <route edges="gneE3 -gneE1"/>
    </vehicle>
    <vehicle id="315" depart="315.00">
        <route edges="gneE3 -gneE2"/>
    </vehicle>
    <vehicle id="316" depart="316.00">
        <route edges="gneE3 -gneE1"/>
    </vehicle>
    <vehicle id="317" depart="317.00">
        <route edges="gneE3 -gneE2"/>
    </vehicle>
    <vehicle id="318" depart="318.00">
        <route edges="gneE2 -gneE1"/>
    </vehicle>
    <vehicle id="319" depart="319.00">
        <route edges="gneE3 -gneE2"/>
    </vehicle>
    <vehicle id="320" depart="320.00">
        <route edges="gneE2 -gneE1"/>
    </vehicle>
    <vehicle id="321" depart="321.00">
        <route edges="gneE3 -gneE2"/>
    </vehicle>
    <vehicle id="322" depart="322.00">
        <route edges="gneE1 -gneE2"/>
    </vehicle>
    <vehicle id="324" depart="324.00">
        <route edges="gneE2 -gneE1"/>
    </vehicle>
    <vehicle id="326" depart="326.00">
        <route edges="gneE3 -gneE1"/>
    </vehicle>
    <vehicle id="332" depart="332.00">
        <route edges="gneE2 -gneE1"/>
    </vehicle>
    <vehicle id="334" depart="334.00">
        <route edges="gneE3 -gneE2"/>
    </vehicle>
    <vehicle id="335" depart="335.00">
        <route edges="gneE3 -gneE1"/>
    </vehicle>
    <vehicle id="336" depart="336.00">
        <route edges="gneE1 -gneE2"/>
    </vehicle>
    <vehicle id="337" depart="337.00">
        <route edges="gneE3 -gneE1"/>
    </vehicle>
    <vehicle id="338" depart="338.00">
        <route edges="gneE1 -gneE2"/>
    </vehicle>
    <vehicle id="339" depart="339.00">
        <route edges="gneE3 -gneE2"/>
    </vehicle>
    <vehicle id="341" depart="341.00">
        <route edges="gneE3 -gneE1"/>
    </vehicle>
    <vehicle id="342" depart="342.00">
        <route edges="gneE3 -gneE2"/>
    </vehicle>
    <vehicle id="346" depart="346.00">
        <route edges="gneE3 -gneE1"/>
    </vehicle>
    <vehicle id="348" depart="348.00">
        <route edges="gneE3 -gneE1"/>
    </vehicle>
    <vehicle id="349" depart="349.00">
        <route edges="gneE2 -gneE1"/>
    </vehicle>
    <vehicle id="351" depart="351.00">
        <route edges="gneE3 -gneE2"/>
    </vehicle>
    <vehicle id="356" depart="356.00">
        <route edges="gneE2 -gneE1"/>
    </vehicle>
    <vehicle id="357" depart="357.00">
        <route edges="gneE1 -gneE2"/>
    </vehicle>
    <vehicle id="358" depart="358.00">
        <route edges="gneE2 -gneE1"/>
    </vehicle>
    <vehicle id="359" depart="359.00">
        <route edges="gneE2 -gneE1"/>
    </vehicle>
    <vehicle id="361" depart="361.00">
        <route edges="gneE1 -gneE2"/>
    </vehicle>
    <vehicle id="364" depart="364.00">
        <route edges="gneE1 -gneE2"/>
    </vehicle>
    <vehicle id="365" depart="365.00">
        <route edges="gneE2 -gneE1"/>
    </vehicle>
    <vehicle id="366" depart="366.00">
        <route edges="gneE2 -gneE1"/>
    </vehicle>
    <vehicle id="367" depart="367.00">
        <route edges="gneE2 -gneE1"/>
    </vehicle>
    <vehicle id="368" depart="368.00">
        <route edges="gneE1 -gneE2"/>
    </vehicle>
    <vehicle id="370" depart="370.00">
        <route edges="gneE2 -gneE1"/>
    </vehicle>
    <vehicle id="371" depart="371.00">
        <route edges="gneE3 -gneE1"/>
    </vehicle>
    <vehicle id="373" depart="373.00">
        <route edges="gneE3 -gneE1"/>
    </vehicle>
    <vehicle id="374" depart="374.00">
        <route edges="gneE2 -gneE1"/>
    </vehicle>
    <vehicle id="375" depart="375.00">
        <route edges="gneE2 -gneE1"/>
    </vehicle>
    <vehicle id="376" depart="376.00">
        <route edges="gneE3 -gneE1"/>
    </vehicle>
    <vehicle id="377" depart="377.00">
        <route edges="gneE3 -gneE2"/>
    </vehicle>
    <vehicle id="379" depart="379.00">
        <route edges="gneE2 -gneE1"/>
    </vehicle>
    <vehicle id="380" depart="380.00">
        <route edges="gneE3 -gneE1"/>
    </vehicle>
    <vehicle id="381" depart="381.00">
        <route edges="gneE3 -gneE1"/>
    </vehicle>
    <vehicle id="382" depart="382.00">
        <route edges="gneE3 -gneE1"/>
    </vehicle>
    <vehicle id="383" depart="383.00">
        <route edges="gneE2 -gneE1"/>
    </vehicle>
    <vehicle id="385" depart="385.00">
        <route edges="gneE1 -gneE2"/>
    </vehicle>
    <vehicle id="386" depart="386.00">
        <route edges="gneE3 -gneE2"/>
    </vehicle>
    <vehicle id="388" depart="388.00">
        <route edges="gneE1 -gneE2"/>
    </vehicle>
    <vehicle id="393" depart="393.00">
        <route edges="gneE3 -gneE1"/>
    </vehicle>
    <vehicle id="395" depart="395.00">
        <route edges="gneE1 -gneE2"/>
    </vehicle>
    <vehicle id="396" depart="396.00">
        <route edges="gneE3 -gneE2"/>
    </vehicle>
    <vehicle id="397" depart="397.00">
        <route edges="gneE3 -gneE1"/>
    </vehicle>
    <vehicle id="398" depart="398.00">
        <route edges="gneE3 -gneE1"/>
    </vehicle>
    <vehicle id="399" depart="399.00">
        <route edges="gneE1 -gneE2"/>
    </vehicle>
    <vehicle id="400" depart="400.00">
        <route edges="gneE3 -gneE1"/>
    </vehicle>
    <vehicle id="401" depart="401.00">
        <route edges="gneE3 -gneE1"/>
    </vehicle>
    <vehicle id="402" depart="402.00">
        <route edges="gneE3 -gneE1"/>
    </vehicle>
    <vehicle id="403" depart="403.00">
        <route edges="gneE3 -gneE2"/>
    </vehicle>
    <vehicle id="405" depart="405.00">
        <route edges="gneE3 -gneE1"/>
    </vehicle>
    <vehicle id="406" depart="406.00">
        <route edges="gneE3 -gneE2"/>
    </vehicle>
    <vehicle id="407" depart="407.00">
        <route edges="gneE1 -gneE2"/>
    </vehicle>
    <vehicle id="409" depart="409.00">
        <route edges="gneE1 -gneE2"/>
    </vehicle>
    <vehicle id="411" depart="411.00">
        <route edges="gneE3 -gneE1"/>
    </vehicle>
    <vehicle id="413" depart="413.00">
        <route edges="gneE1 -gneE2"/>
    </vehicle>
    <vehicle id="414" depart="414.00">
        <route edges="gneE3 -gneE2"/>
    </vehicle>
    <vehicle id="415" depart="415.00">
        <route edges="gneE2 -gneE1"/>
    </vehicle>
    <vehicle id="416" depart="416.00">
        <route edges="gneE2 -gneE1"/>
    </vehicle>
    <vehicle id="417" depart="417.00">
        <route edges="gneE1 -gneE2"/>
    </vehicle>
    <vehicle id="419" depart="419.00">
        <route edges="gneE2 -gneE1"/>
    </vehicle>
    <vehicle id="420" depart="420.00">
        <route edges="gneE3 -gneE2"/>
    </vehicle>
    <vehicle id="421" depart="421.00">
        <route edges="gneE1 -gneE2"/>
    </vehicle>
    <vehicle id="427" depart="427.00">
        <route edges="gneE3 -gneE2"/>
    </vehicle>
    <vehicle id="429" depart="429.00">
        <route edges="gneE3 -gneE1"/>
    </vehicle>
    <vehicle id="431" depart="431.00">
        <route edges="gneE3 -gneE2"/>
    </vehicle>
    <vehicle id="432" depart="432.00">
        <route edges="gneE2 -gneE1"/>
    </vehicle>
    <vehicle id="436" depart="436.00">
        <route edges="gneE1 -gneE2"/>
    </vehicle>
    <vehicle id="437" depart="437.00">
        <route edges="gneE3 -gneE2"/>
    </vehicle>
    <vehicle id="439" depart="439.00">
        <route edges="gneE3 -gneE1"/>
    </vehicle>
    <vehicle id="442" depart="442.00">
        <route edges="gneE1 -gneE2"/>
    </vehicle>
    <vehicle id="443" depart="443.00">
        <route edges="gneE1 -gneE2"/>
    </vehicle>
    <vehicle id="445" depart="445.00">
        <route edges="gneE3 -gneE2"/>
    </vehicle>
    <vehicle id="446" depart="446.00">
        <route edges="gneE3 -gneE1"/>
    </vehicle>
    <vehicle id="447" depart="447.00">
        <route edges="gneE3 -gneE1"/>
    </vehicle>
    <vehicle id="448" depart="448.00">
        <route edges="gneE2 -gneE1"/>
    </vehicle>
    <vehicle id="449" depart="449.00">
        <route edges="gneE3 -gneE1"/>
    </vehicle>
    <vehicle id="451" depart="451.00">
        <route edges="gneE3 -gneE2"/>
    </vehicle>
    <vehicle id="452" depart="452.00">
        <route edges="gneE1 -gneE2"/>
    </vehicle>
    <vehicle id="454" depart="454.00">
        <route edges="gneE2 -gneE1"/>
    </vehicle>
    <vehicle id="455" depart="455.00">
        <route edges="gneE3 -gneE2"/>
    </vehicle>
    <vehicle id="456" depart="456.00">
        <route edges="gneE3 -gneE2"/>
    </vehicle>
    <vehicle id="458" depart="458.00">
        <route edges="gneE1 -gneE2"/>
    </vehicle>
    <vehicle id="460" depart="460.00">
        <route edges="gneE3 -gneE1"/>
    </vehicle>
    <vehicle id="465" depart="465.00">
        <route edges="gneE1 -gneE2"/>
    </vehicle>
    <vehicle id="466" depart="466.00">
        <route edges="gneE3 -gneE2"/>
    </vehicle>
    <vehicle id="471" depart="471.00">
        <route edges="gneE1 -gneE2"/>
    </vehicle>
    <vehicle id="472" depart="472.00">
        <route edges="gneE2 -gneE1"/>
    </vehicle>
    <vehicle id="473" depart="473.00">
        <route edges="gneE3 -gneE2"/>
    </vehicle>
    <vehicle id="476" depart="476.00">
        <route edges="gneE3 -gneE1"/>
    </vehicle>
    <vehicle id="479" depart="479.00">
        <route edges="gneE3 -gneE2"/>
    </vehicle>
    <vehicle id="480" depart="480.00">
        <route edges="gneE3 -gneE2"/>
    </vehicle>
    <vehicle id="482" depart="482.00">
        <route edges="gneE2 -gneE1"/>
    </vehicle>
    <vehicle id="483" depart="483.00">
        <route edges="gneE3 -gneE2"/>
    </vehicle>
    <vehicle id="485" depart="485.00">
        <route edges="gneE3 -gneE1"/>
    </vehicle>
    <vehicle id="487" depart="487.00">