<?xml version="1.0" encoding="UTF-8"?>

<!-- generated on Sun May  6 19:48:30 2018 by SUMO duarouter Version 0.30.0
<?xml version="1.0" encoding="UTF-8"?>

<configuration xmlns:xsi="http://www.w3.org/2001/XMLSchema-instance" xsi:noNamespaceSchemaLocation="http://sumo.dlr.de/xsd/duarouterConfiguration.xsd">

    <input>
        <net-file value="simple_T/simple_T.net.xml"/>
        <route-files value="trips.trips.xml"/>
    </input>

    <output>
        <output-file value="simple_T/route/simple_T-2.0-9.rou.xml"/>
    </output>

    <processing>
        <ignore-errors value="true"/>
    </processing>

    <time>
        <begin value="0.0"/>
        <end value="1000.0"/>
    </time>

    <report>
        <no-warnings value="true"/>
        <no-step-log value="true"/>
    </report>

</configuration>
-->

<routes xmlns:xsi="http://www.w3.org/2001/XMLSchema-instance" xsi:noNamespaceSchemaLocation="http://sumo.dlr.de/xsd/routes_file.xsd">
    <vehicle id="2" depart="4.00">
        <route edges="gneE2 -gneE1"/>
    </vehicle>
    <vehicle id="3" depart="6.00">
        <route edges="gneE2 -gneE1"/>
    </vehicle>
    <vehicle id="4" depart="8.00">
        <route edges="gneE3 -gneE1"/>
    </vehicle>
    <vehicle id="6" depart="12.00">
        <route edges="gneE3 -gneE1"/>
    </vehicle>
    <vehicle id="8" depart="16.00">
        <route edges="gneE1 -gneE2"/>
    </vehicle>
    <vehicle id="9" depart="18.00">
        <route edges="gneE3 -gneE2"/>
    </vehicle>
    <vehicle id="10" depart="20.00">
        <route edges="gneE1 -gneE2"/>
    </vehicle>
    <vehicle id="12" depart="24.00">
        <route edges="gneE1 -gneE2"/>
    </vehicle>
    <vehicle id="13" depart="26.00">
        <route edges="gneE2 -gneE1"/>
    </vehicle>
    <vehicle id="14" depart="28.00">
        <route edges="gneE3 -gneE2"/>
    </vehicle>
    <vehicle id="15" depart="30.00">
        <route edges="gneE3 -gneE2"/>
    </vehicle>
    <vehicle id="16" depart="32.00">
        <route edges="gneE3 -gneE2"/>
    </vehicle>
    <vehicle id="17" depart="34.00">
        <route edges="gneE2 -gneE1"/>
    </vehicle>
    <vehicle id="18" depart="36.00">
        <route edges="gneE3 -gneE1"/>
    </vehicle>
    <vehicle id="19" depart="38.00">
        <route edges="gneE3 -gneE1"/>
    </vehicle>
    <vehicle id="20" depart="40.00">
        <route edges="gneE3 -gneE2"/>
    </vehicle>
    <vehicle id="21" depart="42.00">
        <route edges="gneE3 -gneE1"/>
    </vehicle>
    <vehicle id="22" depart="44.00">
        <route edges="gneE3 -gneE2"/>
    </vehicle>
    <vehicle id="23" depart="46.00">
        <route edges="gneE1 -gneE2"/>
    </vehicle>
    <vehicle id="25" depart="50.00">
        <route edges="gneE1 -gneE2"/>
    </vehicle>
    <vehicle id="27" depart="54.00">
        <route edges="gneE3 -gneE1"/>
    </vehicle>
    <vehicle id="30" depart="60.00">
        <route edges="gneE3 -gneE1"/>
    </vehicle>
    <vehicle id="31" depart="62.00">
        <route edges="gneE2 -gneE1"/>
    </vehicle>
    <vehicle id="32" depart="64.00">
        <route edges="gneE1 -gneE2"/>
    </vehicle>
    <vehicle id="34" depart="68.00">
        <route edges="gneE3 -gneE2"/>
    </vehicle>
    <vehicle id="35" depart="70.00">
        <route edges="gneE3 -gneE1"/>
    </vehicle>
    <vehicle id="36" depart="72.00">
        <route edges="gneE3 -gneE2"/>
    </vehicle>
    <vehicle id="37" depart="74.00">
        <route edges="gneE3 -gneE2"/>
    </vehicle>
    <vehicle id="38" depart="76.00">
        <route edges="gneE2 -gneE1"/>
    </vehicle>
    <vehicle id="41" depart="82.00">
        <route edges="gneE3 -gneE1"/>
    </vehicle>
    <vehicle id="44" depart="88.00">
        <route edges="gneE1 -gneE2"/>
    </vehicle>
    <vehicle id="46" depart="92.00">
        <route edges="gneE1 -gneE2"/>
    </vehicle>
    <vehicle id="48" depart="96.00">
        <route edges="gneE1 -gneE2"/>
    </vehicle>
    <vehicle id="49" depart="98.00">
        <route edges="gneE2 -gneE1"/>
    </vehicle>
    <vehicle id="50" depart="100.00">
        <route edges="gneE1 -gneE2"/>
    </vehicle>
    <vehicle id="52" depart="104.00">
        <route edges="gneE3 -gneE1"/>
    </vehicle>
    <vehicle id="53" depart="106.00">
        <route edges="gneE3 -gneE1"/>
    </vehicle>
    <vehicle id="54" depart="108.00">
        <route edges="gneE1 -gneE2"/>
    </vehicle>
    <vehicle id="55" depart="110.00">
        <route edges="gneE1 -gneE2"/>
    </vehicle>
    <vehicle id="56" depart="112.00">
        <route edges="gneE3 -gneE2"/>
    </vehicle>
    <vehicle id="58" depart="116.00">
        <route edges="gneE3 -gneE1"/>
    </vehicle>
    <vehicle id="60" depart="120.00">
        <route edges="gneE1 -gneE2"/>
    </vehicle>
    <vehicle id="63" depart="126.00">
        <route edges="gneE2 -gneE1"/>
    </vehicle>
    <vehicle id="64" depart="128.00">
        <route edges="gneE1 -gneE2"/>
    </vehicle>
    <vehicle id="65" depart="130.00">
        <route edges="gneE1 -gneE2"/>
    </vehicle>
    <vehicle id="66" depart="132.00">
        <route edges="gneE2 -gneE1"/>
    </vehicle>
    <vehicle id="67" depart="134.00">
        <route edges="gneE2 -gneE1"/>
    </vehicle>
    <vehicle id="68" depart="136.00">
        <route edges="gneE2 -gneE1"/>
    </vehicle>
    <vehicle id="69" depart="138.00">
        <route edges="gneE3 -gneE1"/>
    </vehicle>
    <vehicle id="70" depart="140.00">
        <route edges="gneE2 -gneE1"/>
    </vehicle>
    <vehicle id="71" depart="142.00">
        <route edges="gneE3 -gneE1"/>
    </vehicle>
    <vehicle id="74" depart="148.00">
        <route edges="gneE3 -gneE2"/>
    </vehicle>
    <vehicle id="75" depart="150.00">
        <route edges="gneE1 -gneE2"/>
    </vehicle>
    <vehicle id="76" depart="152.00">
        <route edges="gneE3 -gneE2"/>
    </vehicle>
    <vehicle id="77" depart="154.00">
        <route edges="gneE3 -gneE2"/>
    </vehicle>
    <vehicle id="78" depart="156.00">
        <route edges="gneE3 -gneE1"/>
    </vehicle>
    <vehicle id="79" depart="158.00">
        <route edges="gneE2 -gneE1"/>
    </vehicle>
    <vehicle id="80" depart="160.00">
        <route edges="gneE1 -gneE2"/>
    </vehicle>
    <vehicle id="82" depart="164.00">
        <route edges="gneE2 -gneE1"/>
    </vehicle>
    <vehicle id="83" depart="166.00">
        <route edges="gneE2 -gneE1"/>
    </vehicle>
    <vehicle id="84" depart="168.00">
        <route edges="gneE1 -gneE2"/>
    </vehicle>
    <vehicle id="85" depart="170.00">
        <route edges="gneE2 -gneE1"/>
    </vehicle>
    <vehicle id="87" depart="174.00">
        <route edges="gneE1 -gneE2"/>
    </vehicle>
    <vehicle id="88" depart="176.00">
        <route edges="gneE1 -gneE2"/>
    </vehicle>
    <vehicle id="89" depart="178.00">
        <route edges="gneE1 -gneE2"/>
    </vehicle>
    <vehicle id="91" depart="182.00">
        <route edges="gneE3 -gneE2"/>
    </vehicle>
    <vehicle id="92" depart="184.00">
        <route edges="gneE3 -gneE2"/>
    </vehicle>
    <vehicle id="93" depart="186.00">
        <route edges="gneE3 -gneE1"/>
    </vehicle>
    <vehicle id="95" depart="190.00">
        <route edges="gneE3 -gneE2"/>
    </vehicle>
    <vehicle id="96" depart="192.00">
        <route edges="gneE2 -gneE1"/>
    </vehicle>
    <vehicle id="99" depart="198.00">
        <route edges="gneE1 -gneE2"/>
    </vehicle>
    <vehicle id="100" depart="200.00">
        <route edges="gneE3 -gneE2"/>
    </vehicle>
    <vehicle id="104" depart="208.00">
        <route edges="gneE3 -gneE2"/>
    </vehicle>
    <vehicle id="105" depart="210.00">
        <route edges="gneE3 -gneE1"/>
    </vehicle>
    <vehicle id="107" depart="214.00">
        <route edges="gneE1 -gneE2"/>
    </vehicle>
    <vehicle id="108" depart="216.00">
        <route edges="gneE3 -gneE1"/>
    </vehicle>
    <vehicle id="109" depart="218.00">
        <route edges="gneE1 -gneE2"/>
    </vehicle>
    <vehicle id="110" depart="220.00">
        <route edges="gneE3 -gneE2"/>
    </vehicle>
    <vehicle id="113" depart="226.00">
        <route edges="gneE3 -gneE2"/>
    </vehicle>
    <vehicle id="114" depart="228.00">
        <route edges="gneE1 -gneE2"/>
    </vehicle>
    <vehicle id="115" depart="230.00">
        <route edges="gneE3 -gneE2"/>
    </vehicle>
    <vehicle id="117" depart="234.00">
        <route edges="gneE1 -gneE2"/>
    </vehicle>
    <vehicle id="119" depart="238.00">
        <route edges="gneE3 -gneE1"/>
    </vehicle>
    <vehicle id="122" depart="244.00">
        <route edges="gneE2 -gneE1"/>
    </vehicle>
    <vehicle id="123" depart="246.00">
        <route edges="gneE2 -gneE1"/>
    </vehicle>
    <vehicle id="124" depart="248.00">
        <route edges="gneE2 -gneE1"/>
    </vehicle>
    <vehicle id="125" depart="250.00">
        <route edges="gneE1 -gneE2"/>
    </vehicle>
    <vehicle id="128" depart="256.00">
        <route edges="gneE2 -gneE1"/>
    </vehicle>
    <vehicle id="129" depart="258.00">
        <route edges="gneE2 -gneE1"/>
    </vehicle>
    <vehicle id="130" depart="260.00">
        <route edges="gneE1 -gneE2"/>
    </vehicle>
    <vehicle id="131" depart="262.00">
        <route edges="gneE1 -gneE2"/>
    </vehicle>
    <vehicle id="132" depart="264.00">
        <route edges="gneE3 -gneE2"/>
    </vehicle>
    <vehicle id="133" depart="266.00">
        <route edges="gneE2 -gneE1"/>
    </vehicle>
    <vehicle id="134" depart="268.00">
        <route edges="gneE3 -gneE1"/>
    </vehicle>
    <vehicle id="135" depart="270.00">
        <route edges="gneE1 -gneE2"/>
    </vehicle>
    <vehicle id="137" depart="274.00">
        <route edges="gneE2 -gneE1"/>
    </vehicle>
    <vehicle id="139" depart="278.00">
        <route edges="gneE1 -gneE2"/>
    </vehicle>
    <vehicle id="140" depart="280.00">
        <route edges="gneE3 -gneE2"/>
    </vehicle>
    <vehicle id="142" depart="284.00">
        <route edges="gneE2 -gneE1"/>
    </vehicle>
    <vehicle id="145" depart="290.00">
        <route edges="gneE3 -gneE1"/>
    </vehicle>
    <vehicle id="147" depart="294.00">
        <route edges="gneE3 -gneE1"/>
    </vehicle>
    <vehicle id="148" depart="296.00">
        <route edges="gneE2 -gneE1"/>
    </vehicle>
    <vehicle id="149" depart="298.00">
        <route edges="gneE3 -gneE2"/>
    </vehicle>
    <vehicle id="150" depart="300.00">
        <route edges="gneE2 -gneE1"/>
    </vehicle>
    <vehicle id="151" depart="302.00">
        <route edges="gneE1 -gneE2"/>
    </vehicle>
    <vehicle id="152" depart="304.00">
        <route edges="gneE3 -gneE2"/>
    </vehicle>
    <vehicle id="153" depart="306.00">
        <route edges="gneE2 -gneE1"/>
    </vehicle>
    <vehicle id="154" depart="308.00">
        <route edges="gneE3 -gneE2"/>
    </vehicle>
    <vehicle id="155" depart="310.00">
        <route edges="gneE1 -gneE2"/>
    </vehicle>
    <vehicle id="156" depart="312.00">
        <route edges="gneE1 -gneE2"/>
    </vehicle>
    <vehicle id="157" depart="314.00">
        <route edges="gneE3 -gneE2"/>
    </vehicle>
    <vehicle id="158" depart="316.00">
        <route edges="gneE3 -gneE1"/>
    </vehicle>
    <vehicle id="159" depart="318.00">
        <route edges="gneE2 -gneE1"/>
    </vehicle>
    <vehicle id="161" depart="322.00">
        <route edges="gneE1 -gneE2"/>
    </vehicle>
    <vehicle id="162" depart="324.00">
        <route edges="gneE3 -gneE2"/>
    </vehicle>
    <vehicle id="164" depart="328.00">
        <route edges="gneE3 -gneE1"/>
    </vehicle>
    <vehicle id="165" depart="330.00">
        <route edges="gneE2 -gneE1"/>
    </vehicle>
    <vehicle id="168" depart="336.00">
        <route edges="gneE3 -gneE2"/>
    </vehicle>
    <vehicle id="169" depart="338.00">
        <route edges="gneE2 -gneE1"/>
    </vehicle>
    <vehicle id="173" depart="346.00">
        <route edges="gneE1 -gneE2"/>
    </vehicle>
    <vehicle id="175" depart="350.00">
        <route edges="gneE1 -gneE2"/>
    </vehicle>
    <vehicle id="176" depart="352.00">
        <route edges="gneE2 -gneE1"/>
    </vehicle>
    <vehicle id="178" depart="356.00">
        <route edges="gneE2 -gneE1"/>
    </vehicle>
    <vehicle id="179" depart="358.00">
        <route edges="gneE1 -gneE2"/>
    </vehicle>
    <vehicle id="180" depart="360.00">
        <route edges="gneE3 -gneE2"/>
    </vehicle>
    <vehicle id="184" depart="368.00">
        <route edges="gneE2 -gneE1"/>
    </vehicle>
    <vehicle id="185" depart="370.00">
        <route edges="gneE2 -gneE1"/>
    </vehicle>
    <vehicle id="187" depart="374.00">
        <route edges="gneE1 -gneE2"/>
    </vehicle>
    <vehicle id="188" depart="376.00">
        <route edges="gneE2 -gneE1"/>
    </vehicle>
    <vehicle id="190" depart="380.00">
        <route edges="gneE1 -gneE2"/>
    </vehicle>
    <vehicle id="191" depart="382.00">
        <route edges="gneE2 -gneE1"/>
    </vehicle>
    <vehicle id="192" depart="384.00">
        <route edges="gneE2 -gneE1"/>
    </vehicle>
    <vehicle id="193" depart="386.00">
        <route edges="gneE2 -gneE1"/>
    </vehicle>
    <vehicle id="194" depart="388.00">
        <route edges="gneE1 -gneE2"/>
    </vehicle>
    <vehicle id="198" depart="396.00">
        <route edges="gneE3 -gneE2"/>
    </vehicle>
    <vehicle id="200" depart="400.00">
        <route edges="gneE1 -gneE2"/>
    </vehicle>
    <vehicle id="201" depart="402.00">
        <route edges="gneE3 -gneE1"/>
    </vehicle>
    <vehicle id="202" depart="404.00">
        <route edges="gneE1 -gneE2"/>
    </vehicle>
    <vehicle id="203" depart="406.00">
        <route edges="gneE1 -gneE2"/>
    </vehicle>
    <vehicle id="204" depart="408.00">
        <route edges="gneE1 -gneE2"/>
    </vehicle>
    <vehicle id="205" depart="410.00">
        <route edges="gneE1 -gneE2"/>
    </vehicle>
    <vehicle id="206" depart="412.00">
        <route edges="gneE3 -gneE1"/>
    </vehicle>
    <vehicle id="207" depart="414.00">
        <route edges="gneE3 -gneE1"/>
    </vehicle>
    <vehicle id="208" depart="416.00">
        <route edges="gneE3 -gneE1"/>
    </vehicle>
    <vehicle id="209" depart="418.00">
        <route edges="gneE2 -gneE1"/>
    </vehicle>
    <vehicle id="212" depart="424.00">
        <route edges="gneE2 -gneE1"/>
    </vehicle>
    <vehicle id="213" depart="426.00">
        <route edges="gneE3 -gneE1"/>
    </vehicle>
    <vehicle id="214" depart="428.00">
        <route edges="gneE2 -gneE1"/>
    </vehicle>
    <vehicle id="217" depart="434.00">
        <route edges="gneE3 -gneE1"/>
    </vehicle>
    <vehicle id="219" depart="438.00">
        <route edges="gneE1 -gneE2"/>
    </vehicle>
    <vehicle id="220" depart="440.00">
        <route edges="gneE1 -gneE2"/>
    </vehicle>
    <vehicle id="222" depart="444.00">
        <route edges="gneE1 -gneE2"/>
    </vehicle>
    <vehicle id="224" depart="448.00">
        <route edges="gneE1 -gneE2"/>
    </vehicle>
    <vehicle id="225" depart="450.00">
        <route edges="gneE2 -gneE1"/>
    </vehicle>
    <vehicle id="226" depart="452.00">
        <route edges="gneE3 -gneE2"/>
    </vehicle>
    <vehicle id="229" depart="458.00">
        <route edges="gneE2 -gneE1"/>
    </vehicle>
    <vehicle id="230" depart="460.00">
        <route edges="gneE1 -gneE2"/>
    </vehicle>
    <vehicle id="231" depart="462.00">
        <route edges="gneE2 -gneE1"/>
    </vehicle>
    <vehicle id="232" depart="464.00">
        <route edges="gneE1 -gneE2"/>
    </vehicle>
    <vehicle id="234" depart="468.00">
        <route edges="gneE3 -gneE2"/>
    </vehicle>
    <vehicle id="235" depart="470.00">
        <route edges="gneE3 -gneE2"/>
    </vehicle>
    <vehicle id="238" depart="476.00">
        <route edges="gneE3 -gneE1"/>
    </vehicle>
    <vehicle id="239" depart="478.00">
        <route edges="gneE1 -gneE2"/>
    </vehicle>
    <vehicle id="241" depart="482.00">
        <route edges="gneE2 -gneE1"/>
    </vehicle>
    <vehicle id="242" depart="484.00">
        <route edges="gneE1 -gneE2"/>
    </vehicle>
    <vehicle id="243" depart="486.00">
        <route edges="gneE3 -gneE1"/>
    </vehicle>
    <vehicle id="244" depart="488.00">
        <route edges="gneE3 -gneE2"/>
    </vehicle>
    <vehicle id="246" depart="492.00">
        <route edges="gneE3 -gneE1"/>
    </vehicle>
    <vehicle id="248" depart="496.00">
        <route edges="gneE3 -gneE1"/>
    </vehicle>
    <vehicle id="249" depart="498.00">
        <route edges="gneE3 -gneE1"/>
    </vehicle>
    <vehicle id="251" depart="502.00">
        <route edges="gneE3 -gneE2"/>
    </vehicle>
    <vehicle id="253" depart="506.00">
        <route edges="gneE2 -gneE1"/>
    </vehicle>
    <vehicle id="255" depart="510.00">
        <route edges="gneE3 -gneE1"/>
    </vehicle>
    <vehicle id="256" depart="512.00">
        <route edges="gneE3 -gneE2"/>
    </vehicle>
    <vehicle id="257" depart="514.00">
        <route edges="gneE2 -gneE1"/>
    </vehicle>
    <vehicle id="258" depart="516.00">
        <route edges="gneE2 -gneE1"/>
    </vehicle>
    <vehicle id="260" depart="520.00">
        <route edges="gneE1 -gneE2"/>
    </vehicle>
    <vehicle id="261" depart="522.00">
        <route edges="gneE1 -gneE2"/>
    </vehicle>
    <vehicle id="262" depart="524.00">
        <route edges="gneE1 -gneE2"/>
    </vehicle>
    <vehicle id="266" depart="532.00">
        <route edges="gneE3 -gneE2"/>
    </vehicle>
    <vehicle id="267" depart="534.00">
        <route edges="gneE1 -gneE2"/>
    </vehicle>
    <vehicle id="270" depart="540.00">
        <route edges="gneE2 -gneE1"/>
    </vehicle>
    <vehicle id="271" depart="542.00">
        <route edges="gneE3 -gneE1"/>
    </vehicle>
    <vehicle id="275" depart="550.00">
        <route edges="gneE3 -gneE2"/>
    </vehicle>
    <vehicle id="278" depart="556.00">
        <route edges="gneE2 -gneE1"/>
    </vehicle>
    <vehicle id="279" depart="558.00">
        <route edges="gneE3 -gneE1"/>
    </vehicle>
    <vehicle id="280" depart="560.00">
        <route edges="gneE1 -gneE2"/>
    </vehicle>
    <vehicle id="284" depart="568.00">
        <route edges="gneE2 -gneE1"/>
    </vehicle>
    <vehicle id="285" depart="570.00">
        <route edges="gneE3 -gneE1"/>
    </vehicle>
    <vehicle id="286" depart="572.00">
        <route edges="gneE3 -gneE1"/>
    </vehicle>
    <vehicle id="287" depart="574.00">
        <route edges="gneE1 -gneE2"/>
    </vehicle>
    <vehicle id="288" depart="576.00">
        <route edges="gneE3 -gneE1"/>
    </vehicle>
    <vehicle id="289" depart="578.00">
        <route edges="gneE1 -gneE2"/>
    </vehicle>
    <vehicle id="293" depart="586.00">
        <route edges="gneE2 -gneE1"/>
    </vehicle>
    <vehicle id="294" depart="588.00">
        <route edges="gneE3 -gneE2"/>
    </vehicle>
    <vehicle id="295" depart="590.00">
        <route edges="gneE3 -gneE2"/>
    </vehicle>
    <vehicle id="297" depart="594.00">
        <route edges="gneE1 -gneE2"/>
    </vehicle>
    <vehicle id="299" depart="598.00">
        <route edges="gneE3 -gneE2"/>
    </vehicle>
    <vehicle id="300" depart="600.00">
        <route edges="gneE2 -gneE1"/>
    </vehicle>
    <vehicle id="302" depart="604.00">
        <route edges="gneE1 -gneE2"/>
    </vehicle>
    <vehicle id="303" depart="606.00">
        <route edges="gneE1 -gneE2"/>
    </vehicle>
    <vehicle id="304" depart="608.00">
        <route edges="gneE3 -gneE2"/>
    </vehicle>
    <vehicle id="306" depart="612.00">
        <route edges="gneE2 -gneE1"/>
    </vehicle>
    <vehicle id="307" depart="614.00">
        <route edges="gneE3 -gneE2"/>
    </vehicle>
    <vehicle id="308" depart="616.00">
        <route edges="gneE3 -gneE2"/>
    </vehicle>
    <vehicle id="309" depart="618.00">
        <route edges="gneE2 -gneE1"/>
    </vehicle>
    <vehicle id="311" depart="622.00">
        <route edges="gneE3 -gneE1"/>
    </vehicle>
    <vehicle id="312" depart="624.00">
        <route edges="gneE3 -gneE2"/>
    </vehicle>
    <vehicle id="313" depart="626.00">
        <route edges="gneE1 -gneE2"/>
    </vehicle>
    <vehicle id="315" depart="630.00">
        <route edges="gneE3 -gneE1"/>
    </vehicle>
    <vehicle id="316" depart="632.00">
        <route edges="gneE2 -gneE1"/>
    </vehicle>
    <vehicle id="317" depart="634.00">
        <route edges="gneE3 -gneE2"/>
    </vehicle>
    <vehicle id="323" depart="646.00">
        <route edges="gneE1 -gneE2"/>
    </vehicle>
    <vehicle id="324" depart="648.00">
        <route edges="gneE2 -gneE1"/>
    </vehicle>
    <vehicle id="326" depart="652.00">
        <route edges="gneE3 -gneE2"/>
    </vehicle>
    <vehicle id="328" depart="656.00">
        <route edges="gneE2 -gneE1"/>
    </vehicle>
    <vehicle id="329" depart="658.00">
        <route edges="gneE3 -gneE2"/>
    </vehicle>
    <vehicle id="330" depart="660.00">
        <route edges="gneE3 -gneE1"/>
    </vehicle>
    <vehicle id="331" depart="662.00">
        <route edges="gneE3 -gneE1"/>
    </vehicle>
    <vehicle id="333" depart="666.00">
        <route edges="gneE3 -gneE1"/>
    </vehicle>
    <vehicle id="334" depart="668.00">
        <route edges="gneE1 -gneE2"/>
    </vehicle>
    <vehicle id="335" depart="670.00">
        <route edges="gneE2 -gneE1"/>
    </vehicle>
    <vehicle id="336" depart="672.00">
        <route edges="gneE2 -gneE1"/>
    </vehicle>
    <vehicle id="337" depart="674.00">
        <route edges="gneE3 -gneE2"/>
    </vehicle>
    <vehicle id="340" depart="680.00">
        <route edges="gneE3 -gneE1"/>
    </vehicle>
    <vehicle id="342" depart="684.00">
        <route edges="gneE2 -gneE1"/>
    </vehicle>
    <vehicle id="343" depart="686.00">
        <route edges="gneE3 -gneE1"/>
    </vehicle>
    <vehicle id="345" depart="690.00">
        <route edges="gneE3 -gneE2"/>
    </vehicle>
    <vehicle id="346" depart="692.00">
        <route edges="gneE3 -gneE1"/>
    </vehicle>
    <vehicle id="349" depart="698.00">
        <route edges="gneE3 -gneE2"/>
    </vehicle>
    <vehicle id="350" depart="700.00">
        <route edges="gneE1 -gneE2"/>
    </vehicle>
    <vehicle id="351" depart="702.00">
        <route edges="gneE2 -gneE1"/>
    </vehicle>
    <vehicle id="352" depart="704.00">
        <route edges="gneE1 -gneE2"/>
    </vehicle>
    <vehicle id="354" depart="708.00">
        <route edges="gneE3 -gneE2"/>
    </vehicle>
    <vehicle id="355" depart="710.00">
        <route edges="gneE1 -gneE2"/>
    </vehicle>
    <vehicle id="356" depart="712.00">
        <route edges="gneE2 -gneE1"/>
    </vehicle>
    <vehicle id="357" depart="714.00">
        <route edges="gneE2 -gneE1"/>
    </vehicle>
    <vehicle id="359" depart="718.00">
        <route edges="gneE3 -gneE1"/>
    </vehicle>
    <vehicle id="360" depart="720.00">
        <route edges="gneE2 -gneE1"/>
    </vehicle>
    <vehicle id="361" depart="722.00">
        <route edges="gneE1 -gneE2"/>
    </vehicle>
    <vehicle id="363" depart="726.00">
        <route edges="gneE1 -gneE2"/>
    </vehicle>
    <vehicle id="364" depart="728.00">
        <route edges="gneE3 -gneE1"/>
    </vehicle>
    <vehicle id="366" depart="732.00">
        <route edges="gneE1 -gneE2"/>
    </vehicle>
    <vehicle id="370" depart="740.00">
        <route edges="gneE1 -gneE2"/>
    </vehicle>
    <vehicle id="372" depart="744.00">
        <route edges="gneE3 -gneE1"/>
    </vehicle>
    <vehicle id="374" depart="748.00">
        <route edges="gneE3 -gneE1"/>
    </vehicle>
    <vehicle id="375" depart="750.00">
        <route edges="gneE3 -gneE1"/>
    </vehicle>
    <vehicle id="376" depart="752.00">
        <route edges="gneE1 -gneE2"/>
    </vehicle>
    <vehicle id="377" depart="754.00">
        <route edges="gneE2 -gneE1"/>
    </vehicle>
    <vehicle id="378" depart="756.00">
        <route edges="gneE3 -gneE2"/>
    </vehicle>
    <vehicle id="379" depart="758.00">
        <route edges="gneE3 -gneE1"/>
    </vehicle>
    <vehicle id="381" depart="762.00">
        <route edges="gneE3 -gneE1"/>
    </vehicle>
    <vehicle id="382" depart="764.00">
        <route edges="gneE1 -gneE2"/>
    </vehicle>
    <vehicle id="383" depart="766.00">
        <route edges="gneE2 -gneE1"/>
    </vehicle>
    <vehicle id="384" depart="768.00">
        <route edges="gneE1 -gneE2"/>
    </vehicle>
    <vehicle id="385" depart="770.00">
        <route edges="gneE3 -gneE2"/>
    </vehicle>
    <vehicle id="386" depart="772.00">
        <route edges="gneE2 -gneE1"/>
    </vehicle>
    <vehicle id="388" depart="776.00">
        <route edges="gneE3 -gneE2"/>
    </vehicle>
    <vehicle id="389" depart="778.00">
        <route edges="gneE3 -gneE2"/>
    </vehicle>
    <vehicle id="390" depart="780.00">
        <route edges="gneE1 -gneE2"/>
    </vehicle>
    <vehicle id="391" depart="782.00">
        <route edges="gneE3 -gneE2"/>
    </vehicle>
    <vehicle id="392" depart="784.00">
        <route edges="gneE2 -gneE1"/>
    </vehicle>
    <vehicle id="393" depart="786.00">
        <route edges="gneE1 -gneE2"/>
    </vehicle>
    <vehicle id="394" depart="788.00">
        <route edges="gneE1 -gneE2"/>
    </vehicle>
    <vehicle id="395" depart="790.00">
        <route edges="gneE1 -gneE2"/>
    </vehicle>
    <vehicle id="396" depart="792.00">
        <route edges="gneE1 -gneE2"/>
    </vehicle>
    <vehicle id="397" depart="794.00">
        <route edges="gneE3 -gneE1"/>
    </vehicle>
    <vehicle id="398" depart="796.00">
        <route edges="gneE1 -gneE2"/>
    </vehicle>
    <vehicle id="402" depart="804.00">
        <route edges="gneE3 -gneE1"/>
    </vehicle>
    <vehicle id="403" depart="806.00">
        <route edges="gneE3 -gneE2"/>
    </vehicle>
    <vehicle id="404" depart="808.00">
        <route edges="gneE3 -gneE1"/>
    </vehicle>
    <vehicle id="405" depart="810.00">
        <route edges="gneE3 -gneE1"/>
    </vehicle>
    <vehicle id="408" depart="816.00">
        <route edges="gneE3 -gneE1"/>
    </vehicle>
    <vehicle id="410" depart="820.00">
        <route edges="gneE3 -gneE2"/>
    </vehicle>
    <vehicle id="411" depart="822.00">
        <route edges="gneE1 -gneE2"/>
    </vehicle>
    <vehicle id="412" depart="824.00">
        <route edges="gneE1 -gneE2"/>
    </vehicle>
    <vehicle id="414" depart="828.00">
        <route edges="gneE3 -gneE2"/>
    </vehicle>
    <vehicle id="415" depart="830.00">
        <route edges="gneE1 -gneE2"/>
    </vehicle>
    <vehicle id="416" depart="832.00">
        <route edges="gneE1 -gneE2"/>
    </vehicle>
    <vehicle id="417" depart="834.00">
        <route edges="gneE3 -gneE2"/>
    </vehicle>
    <vehicle id="419" depart="838.00">
        <route edges="gneE1 -gneE2"/>
    </vehicle>
    <vehicle id="420" depart="840.00">
        <route edges="gneE1 -gneE2"/>
    </vehicle>
    <vehicle id="421" depart="842.00">
        <route edges="gneE2 -gneE1"/>
    </vehicle>
    <vehicle id="422" depart="844.00">
        <route edges="gneE1 -gneE2"/>
    </vehicle>
    <vehicle id="423" depart="846.00">
        <route edges="gneE3 -gneE2"/>
    </vehicle>
    <vehicle id="424" depart="848.00">
        <route edges="gneE2 -gneE1"/>
    </vehicle>
    <vehicle id="427" depart="854.00">
        <route edges="gneE2 -gneE1"/>
    </vehicle>
    <vehicle id="429" depart="858.00">
        <route edges="gneE2 -gneE1"/>
    </vehicle>
    <vehicle id="430" depart="860.00">
        <route edges="gneE2 -gneE1"/>
    </vehicle>
    <vehicle id="431" depart="862.00">
        <route edges="gneE1 -gneE2"/>
    </vehicle>
    <vehicle id="432" depart="864.00">
        <route edges="gneE3 -gneE2"/>
    </vehicle>
    <vehicle id="433" depart="866.00">
        <route edges="gneE3 -gneE2"/>
    </vehicle>
    <vehicle id="434" depart="868.00">
        <route edges="gneE1 -gneE2"/>
    </vehicle>
    <vehicle id="435" depart="870.00">
        <route edges="gneE1 -gneE2"/>
    </vehicle>
    <vehicle id="436" depart="872.00">
        <route edges="gneE2 -gneE1"/>
    </vehicle>
    <vehicle id="437" depart="874.00">
        <route edges="gneE1 -gneE2"/>
    </vehicle>
    <vehicle id="438" depart="876.00">
        <route edges="gneE3 -gneE1"/>
    </vehicle>
    <vehicle id="439" depart="878.00">
        <route edges="gneE2 -gneE1"/>
    </vehicle>
    <vehicle id="440" depart="880.00">
        <route edges="gneE3 -gneE2"/>
    </vehicle>
    <vehicle id="441" depart="882.00">
        <route edges="gneE3 -gneE2"/>
    </vehicle>
    <vehicle id="442" depart="884.00">
        <route edges="gneE3 -gneE1"/>
    </vehicle>
    <vehicle id="443" depart="886.00">
        <route edges="gneE1 -gneE2"/>
    </vehicle>
    <vehicle id="446" depart="892.00">
        <route edges="gneE1 -gneE2"/>
    </vehicle>
    <vehicle id="447" depart="894.00">
        <route edges="gneE2 -gneE1"/>
    </vehicle>
    <vehicle id="448" depart="896.00">
        <route edges="gneE1 -gneE2"/>
    </vehicle>
    <vehicle id="451" depart="902.00">
        <route edges="gneE1 -gneE2"/>
    </vehicle>
    <vehicle id="452" depart="904.00">
        <route edges="gneE3 -gneE1"/>
    </vehicle>
    <vehicle id="453" depart="906.00">
        <route edges="gneE2 -gneE1"/>
    </vehicle>
    <vehicle id="455" depart="910.00">
        <route edges="gneE3 -gneE1"/>
    </vehicle>
    <vehicle id="456" depart="912.00">
        <route edges="gneE1 -gneE2"/>
    </vehicle>
    <vehicle id="457" depart="914.00">
        <route edges="gneE1 -gneE2"/>
    </vehicle>
    <vehicle id="459" depart="918.00">
        <route edges="gneE3 -gneE2"/>
    </vehicle>
    <vehicle id="461" depart="922.00">
        <route edges="gneE3 -gneE2"/>
    </vehicle>
    <vehicle id="463" depart="926.00">
        <route edges="gneE3 -gneE2"/>
    </vehicle>
    <vehicle id="464" depart="928.00">
        <route edges="gneE2 -gneE1"/>
    </vehicle>
    <vehicle id="467" depart="934.00">
        <route edges="gneE2 -gneE1"/>
    </vehicle>
    <vehicle id="470" depart="940.00">
        <route edges="gneE1 -gneE2"/>
    </vehicle>