<?xml version="1.0" encoding="UTF-8"?>

<!-- generated on Sun May  6 21:21:29 2018 by SUMO duarouter Version 0.30.0
<?xml version="1.0" encoding="UTF-8"?>

<configuration xmlns:xsi="http://www.w3.org/2001/XMLSchema-instance" xsi:noNamespaceSchemaLocation="http://sumo.dlr.de/xsd/duarouterConfiguration.xsd">

    <input>
        <net-file value="simple_T/simple_T.net.xml"/>
        <route-files value="trips.trips.xml"/>
    </input>

    <output>
        <output-file value="simple_T/route/simple_T-0.9-4.rou.xml"/>
    </output>

    <processing>
        <ignore-errors value="true"/>
    </processing>

    <time>
        <begin value="0.0"/>
        <end value="1000.0"/>
    </time>

    <report>
        <no-warnings value="true"/>
        <no-step-log value="true"/>
    </report>

</configuration>
-->

<routes xmlns:xsi="http://www.w3.org/2001/XMLSchema-instance" xsi:noNamespaceSchemaLocation="http://sumo.dlr.de/xsd/routes_file.xsd">
    <vehicle id="3" depart="2.70">
        <route edges="gneE3 -gneE2"/>
    </vehicle>
    <vehicle id="4" depart="3.60">
        <route edges="gneE1 -gneE2"/>
    </vehicle>
    <vehicle id="5" depart="4.50">
        <route edges="gneE2 -gneE1"/>
    </vehicle>
    <vehicle id="6" depart="5.40">
        <route edges="gneE3 -gneE1"/>
    </vehicle>
    <vehicle id="7" depart="6.30">
        <route edges="gneE2 -gneE1"/>
    </vehicle>
    <vehicle id="10" depart="9.00">
        <route edges="gneE3 -gneE1"/>
    </vehicle>
    <vehicle id="11" depart="9.90">
        <route edges="gneE1 -gneE2"/>
    </vehicle>
    <vehicle id="12" depart="10.80">
        <route edges="gneE3 -gneE2"/>
    </vehicle>
    <vehicle id="14" depart="12.60">
        <route edges="gneE3 -gneE1"/>
    </vehicle>
    <vehicle id="15" depart="13.50">
        <route edges="gneE2 -gneE1"/>
    </vehicle>
    <vehicle id="16" depart="14.40">
        <route edges="gneE3 -gneE2"/>
    </vehicle>
    <vehicle id="17" depart="15.30">
        <route edges="gneE3 -gneE2"/>
    </vehicle>
    <vehicle id="18" depart="16.20">
        <route edges="gneE3 -gneE1"/>
    </vehicle>
    <vehicle id="19" depart="17.10">
        <route edges="gneE2 -gneE1"/>
    </vehicle>
    <vehicle id="21" depart="18.90">
        <route edges="gneE2 -gneE1"/>
    </vehicle>
    <vehicle id="23" depart="20.70">
        <route edges="gneE1 -gneE2"/>
    </vehicle>
    <vehicle id="25" depart="22.50">
        <route edges="gneE3 -gneE2"/>
    </vehicle>
    <vehicle id="26" depart="23.40">
        <route edges="gneE3 -gneE2"/>
    </vehicle>
    <vehicle id="27" depart="24.30">
        <route edges="gneE1 -gneE2"/>
    </vehicle>
    <vehicle id="28" depart="25.20">
        <route edges="gneE3 -gneE1"/>
    </vehicle>
    <vehicle id="29" depart="26.10">
        <route edges="gneE3 -gneE2"/>
    </vehicle>
    <vehicle id="30" depart="27.00">
        <route edges="gneE1 -gneE2"/>
    </vehicle>
    <vehicle id="31" depart="27.90">
        <route edges="gneE3 -gneE1"/>
    </vehicle>
    <vehicle id="32" depart="28.80">
        <route edges="gneE2 -gneE1"/>
    </vehicle>
    <vehicle id="33" depart="29.70">
        <route edges="gneE3 -gneE1"/>
    </vehicle>
    <vehicle id="36" depart="32.40">
        <route edges="gneE3 -gneE1"/>
    </vehicle>
    <vehicle id="37" depart="33.30">
        <route edges="gneE3 -gneE1"/>
    </vehicle>
    <vehicle id="38" depart="34.20">
        <route edges="gneE3 -gneE1"/>
    </vehicle>
    <vehicle id="40" depart="36.00">
        <route edges="gneE3 -gneE1"/>
    </vehicle>
    <vehicle id="44" depart="39.60">
        <route edges="gneE3 -gneE1"/>
    </vehicle>
    <vehicle id="49" depart="44.10">
        <route edges="gneE3 -gneE2"/>
    </vehicle>
    <vehicle id="50" depart="45.00">
        <route edges="gneE1 -gneE2"/>
    </vehicle>
    <vehicle id="51" depart="45.90">
        <route edges="gneE3 -gneE2"/>
    </vehicle>
    <vehicle id="52" depart="46.80">
        <route edges="gneE1 -gneE2"/>
    </vehicle>
    <vehicle id="54" depart="48.60">
        <route edges="gneE1 -gneE2"/>
    </vehicle>
    <vehicle id="55" depart="49.50">
        <route edges="gneE2 -gneE1"/>
    </vehicle>
    <vehicle id="56" depart="50.40">
        <route edges="gneE3 -gneE1"/>
    </vehicle>
    <vehicle id="57" depart="51.30">
        <route edges="gneE2 -gneE1"/>
    </vehicle>
    <vehicle id="59" depart="53.10">
        <route edges="gneE2 -gneE1"/>
    </vehicle>
    <vehicle id="62" depart="55.80">
        <route edges="gneE3 -gneE1"/>
    </vehicle>
    <vehicle id="63" depart="56.70">
        <route edges="gneE3 -gneE2"/>
    </vehicle>
    <vehicle id="64" depart="57.60">
        <route edges="gneE3 -gneE1"/>
    </vehicle>
    <vehicle id="65" depart="58.50">
        <route edges="gneE2 -gneE1"/>
    </vehicle>
    <vehicle id="66" depart="59.40">
        <route edges="gneE1 -gneE2"/>
    </vehicle>
    <vehicle id="67" depart="60.30">
        <route edges="gneE2 -gneE1"/>
    </vehicle>
    <vehicle id="69" depart="62.10">
        <route edges="gneE1 -gneE2"/>
    </vehicle>
    <vehicle id="71" depart="63.90">
        <route edges="gneE1 -gneE2"/>
    </vehicle>
    <vehicle id="72" depart="64.80">
        <route edges="gneE2 -gneE1"/>
    </vehicle>
    <vehicle id="74" depart="66.60">
        <route edges="gneE2 -gneE1"/>
    </vehicle>
    <vehicle id="78" depart="70.20">
        <route edges="gneE3 -gneE2"/>
    </vehicle>
    <vehicle id="80" depart="72.00">
        <route edges="gneE3 -gneE2"/>
    </vehicle>
    <vehicle id="81" depart="72.90">
        <route edges="gneE3 -gneE1"/>
    </vehicle>
    <vehicle id="82" depart="73.80">
        <route edges="gneE2 -gneE1"/>
    </vehicle>
    <vehicle id="85" depart="76.50">
        <route edges="gneE1 -gneE2"/>
    </vehicle>
    <vehicle id="86" depart="77.40">
        <route edges="gneE2 -gneE1"/>
    </vehicle>
    <vehicle id="87" depart="78.30">
        <route edges="gneE3 -gneE2"/>
    </vehicle>
    <vehicle id="88" depart="79.20">
        <route edges="gneE3 -gneE2"/>
    </vehicle>
    <vehicle id="91" depart="81.90">
        <route edges="gneE3 -gneE2"/>
    </vehicle>
    <vehicle id="92" depart="82.80">
        <route edges="gneE1 -gneE2"/>
    </vehicle>
    <vehicle id="93" depart="83.70">
        <route edges="gneE3 -gneE1"/>
    </vehicle>
    <vehicle id="94" depart="84.60">
        <route edges="gneE2 -gneE1"/>
    </vehicle>
    <vehicle id="95" depart="85.50">
        <route edges="gneE1 -gneE2"/>
    </vehicle>
    <vehicle id="96" depart="86.40">
        <route edges="gneE2 -gneE1"/>
    </vehicle>
    <vehicle id="97" depart="87.30">
        <route edges="gneE2 -gneE1"/>
    </vehicle>
    <vehicle id="98" depart="88.20">
        <route edges="gneE2 -gneE1"/>
    </vehicle>
    <vehicle id="100" depart="90.00">
        <route edges="gneE2 -gneE1"/>
    </vehicle>
    <vehicle id="103" depart="92.70">
        <route edges="gneE3 -gneE2"/>
    </vehicle>
    <vehicle id="104" depart="93.60">
        <route edges="gneE2 -gneE1"/>
    </vehicle>
    <vehicle id="105" depart="94.50">
        <route edges="gneE1 -gneE2"/>
    </vehicle>
    <vehicle id="106" depart="95.40">
        <route edges="gneE3 -gneE1"/>
    </vehicle>
    <vehicle id="109" depart="98.10">
        <route edges="gneE3 -gneE2"/>
    </vehicle>
    <vehicle id="110" depart="99.00">
        <route edges="gneE1 -gneE2"/>
    </vehicle>
    <vehicle id="112" depart="100.80">
        <route edges="gneE3 -gneE2"/>
    </vehicle>
    <vehicle id="113" depart="101.70">
        <route edges="gneE2 -gneE1"/>
    </vehicle>
    <vehicle id="114" depart="102.60">
        <route edges="gneE3 -gneE2"/>
    </vehicle>
    <vehicle id="116" depart="104.40">
        <route edges="gneE2 -gneE1"/>
    </vehicle>
    <vehicle id="117" depart="105.30">
        <route edges="gneE2 -gneE1"/>
    </vehicle>
    <vehicle id="118" depart="106.20">
        <route edges="gneE3 -gneE2"/>
    </vehicle>
    <vehicle id="119" depart="107.10">
        <route edges="gneE1 -gneE2"/>
    </vehicle>
    <vehicle id="120" depart="108.00">
        <route edges="gneE2 -gneE1"/>
    </vehicle>
    <vehicle id="121" depart="108.90">
        <route edges="gneE1 -gneE2"/>
    </vehicle>
    <vehicle id="122" depart="109.80">
        <route edges="gneE2 -gneE1"/>
    </vehicle>
    <vehicle id="123" depart="110.70">
        <route edges="gneE2 -gneE1"/>
    </vehicle>
    <vehicle id="124" depart="111.60">
        <route edges="gneE3 -gneE1"/>
    </vehicle>
    <vehicle id="125" depart="112.50">
        <route edges="gneE2 -gneE1"/>
    </vehicle>
    <vehicle id="126" depart="113.40">
        <route edges="gneE3 -gneE2"/>
    </vehicle>
    <vehicle id="127" depart="114.30">
        <route edges="gneE3 -gneE1"/>
    </vehicle>
    <vehicle id="128" depart="115.20">
        <route edges="gneE1 -gneE2"/>
    </vehicle>
    <vehicle id="129" depart="116.10">
        <route edges="gneE3 -gneE1"/>
    </vehicle>
    <vehicle id="130" depart="117.00">
        <route edges="gneE1 -gneE2"/>
    </vehicle>
    <vehicle id="131" depart="117.90">
        <route edges="gneE1 -gneE2"/>
    </vehicle>
    <vehicle id="132" depart="118.80">
        <route edges="gneE2 -gneE1"/>
    </vehicle>
    <vehicle id="134" depart="120.60">
        <route edges="gneE3 -gneE2"/>
    </vehicle>
    <vehicle id="135" depart="121.50">
        <route edges="gneE3 -gneE1"/>
    </vehicle>
    <vehicle id="136" depart="122.40">
        <route edges="gneE3 -gneE1"/>
    </vehicle>
    <vehicle id="137" depart="123.30">
        <route edges="gneE3 -gneE2"/>
    </vehicle>
    <vehicle id="138" depart="124.20">
        <route edges="gneE3 -gneE1"/>
    </vehicle>
    <vehicle id="139" depart="125.10">
        <route edges="gneE3 -gneE2"/>
    </vehicle>
    <vehicle id="140" depart="126.00">
        <route edges="gneE3 -gneE1"/>
    </vehicle>
    <vehicle id="143" depart="128.70">
        <route edges="gneE3 -gneE1"/>
    </vehicle>
    <vehicle id="145" depart="130.50">
        <route edges="gneE2 -gneE1"/>
    </vehicle>
    <vehicle id="146" depart="131.40">
        <route edges="gneE3 -gneE2"/>
    </vehicle>
    <vehicle id="147" depart="132.30">
        <route edges="gneE3 -gneE1"/>
    </vehicle>
    <vehicle id="152" depart="136.80">
        <route edges="gneE1 -gneE2"/>
    </vehicle>
    <vehicle id="154" depart="138.60">
        <route edges="gneE3 -gneE1"/>
    </vehicle>
    <vehicle id="155" depart="139.50">
        <route edges="gneE3 -gneE2"/>
    </vehicle>
    <vehicle id="156" depart="140.40">
        <route edges="gneE3 -gneE1"/>
    </vehicle>
    <vehicle id="158" depart="142.20">
        <route edges="gneE2 -gneE1"/>
    </vehicle>
    <vehicle id="159" depart="143.10">
        <route edges="gneE3 -gneE2"/>
    </vehicle>
    <vehicle id="160" depart="144.00">
        <route edges="gneE3 -gneE1"/>
    </vehicle>
    <vehicle id="162" depart="145.80">
        <route edges="gneE3 -gneE2"/>
    </vehicle>
    <vehicle id="163" depart="146.70">
        <route edges="gneE3 -gneE1"/>
    </vehicle>
    <vehicle id="165" depart="148.50">
        <route edges="gneE3 -gneE1"/>
    </vehicle>
    <vehicle id="166" depart="149.40">
        <route edges="gneE3 -gneE1"/>
    </vehicle>
    <vehicle id="167" depart="150.30">
        <route edges="gneE1 -gneE2"/>
    </vehicle>
    <vehicle id="169" depart="152.10">
        <route edges="gneE2 -gneE1"/>
    </vehicle>
    <vehicle id="170" depart="153.00">
        <route edges="gneE3 -gneE2"/>
    </vehicle>
    <vehicle id="174" depart="156.60">
        <route edges="gneE2 -gneE1"/>
    </vehicle>
    <vehicle id="179" depart="161.10">
        <route edges="gneE3 -gneE1"/>
    </vehicle>
    <vehicle id="180" depart="162.00">
        <route edges="gneE3 -gneE1"/>
    </vehicle>
    <vehicle id="182" depart="163.80">
        <route edges="gneE2 -gneE1"/>
    </vehicle>
    <vehicle id="183" depart="164.70">
        <route edges="gneE3 -gneE2"/>
    </vehicle>
    <vehicle id="185" depart="166.50">
        <route edges="gneE3 -gneE2"/>
    </vehicle>
    <vehicle id="186" depart="167.40">
        <route edges="gneE2 -gneE1"/>
    </vehicle>
    <vehicle id="187" depart="168.30">
        <route edges="gneE3 -gneE1"/>
    </vehicle>
    <vehicle id="189" depart="170.10">
        <route edges="gneE1 -gneE2"/>
    </vehicle>
    <vehicle id="190" depart="171.00">
        <route edges="gneE1 -gneE2"/>
    </vehicle>
    <vehicle id="191" depart="171.90">
        <route edges="gneE3 -gneE2"/>
    </vehicle>
    <vehicle id="194" depart="174.60">
        <route edges="gneE2 -gneE1"/>
    </vehicle>
    <vehicle id="195" depart="175.50">
        <route edges="gneE1 -gneE2"/>
    </vehicle>
    <vehicle id="197" depart="177.30">
        <route edges="gneE3 -gneE1"/>
    </vehicle>
    <vehicle id="199" depart="179.10">
        <route edges="gneE3 -gneE2"/>
    </vehicle>
    <vehicle id="200" depart="180.00">
        <route edges="gneE2 -gneE1"/>
    </vehicle>
    <vehicle id="202" depart="181.80">
        <route edges="gneE2 -gneE1"/>
    </vehicle>
    <vehicle id="203" depart="182.70">
        <route edges="gneE3 -gneE2"/>
    </vehicle>
    <vehicle id="204" depart="183.60">
        <route edges="gneE1 -gneE2"/>
    </vehicle>
    <vehicle id="206" depart="185.40">
        <route edges="gneE3 -gneE2"/>
    </vehicle>
    <vehicle id="207" depart="186.30">
        <route edges="gneE3 -gneE1"/>
    </vehicle>
    <vehicle id="208" depart="187.20">
        <route edges="gneE2 -gneE1"/>
    </vehicle>
    <vehicle id="212" depart="190.80">
        <route edges="gneE2 -gneE1"/>
    </vehicle>
    <vehicle id="213" depart="191.70">
        <route edges="gneE1 -gneE2"/>
    </vehicle>
    <vehicle id="214" depart="192.60">
        <route edges="gneE3 -gneE1"/>
    </vehicle>
    <vehicle id="215" depart="193.50">
        <route edges="gneE3 -gneE1"/>
    </vehicle>
    <vehicle id="216" depart="194.40">
        <route edges="gneE1 -gneE2"/>
    </vehicle>
    <vehicle id="217" depart="195.30">
        <route edges="gneE3 -gneE2"/>
    </vehicle>
    <vehicle id="218" depart="196.20">
        <route edges="gneE3 -gneE2"/>
    </vehicle>
    <vehicle id="219" depart="197.10">
        <route edges="gneE3 -gneE2"/>
    </vehicle>
    <vehicle id="220" depart="198.00">
        <route edges="gneE3 -gneE1"/>
    </vehicle>
    <vehicle id="221" depart="198.90">
        <route edges="gneE3 -gneE2"/>
    </vehicle>
    <vehicle id="222" depart="199.80">
        <route edges="gneE2 -gneE1"/>
    </vehicle>
    <vehicle id="223" depart="200.70">
        <route edges="gneE1 -gneE2"/>
    </vehicle>
    <vehicle id="225" depart="202.50">
        <route edges="gneE1 -gneE2"/>
    </vehicle>
    <vehicle id="228" depart="205.20">
        <route edges="gneE2 -gneE1"/>
    </vehicle>
    <vehicle id="229" depart="206.10">
        <route edges="gneE2 -gneE1"/>
    </vehicle>
    <vehicle id="231" depart="207.90">
        <route edges="gneE3 -gneE1"/>
    </vehicle>
    <vehicle id="234" depart="210.60">
        <route edges="gneE2 -gneE1"/>
    </vehicle>
    <vehicle id="236" depart="212.40">
        <route edges="gneE1 -gneE2"/>
    </vehicle>
    <vehicle id="237" depart="213.30">
        <route edges="gneE3 -gneE2"/>
    </vehicle>
    <vehicle id="238" depart="214.20">
        <route edges="gneE3 -gneE2"/>
    </vehicle>
    <vehicle id="239" depart="215.10">
        <route edges="gneE3 -gneE2"/>
    </vehicle>
    <vehicle id="241" depart="216.90">
        <route edges="gneE3 -gneE1"/>
    </vehicle>
    <vehicle id="243" depart="218.70">
        <route edges="gneE3 -gneE1"/>
    </vehicle>
    <vehicle id="248" depart="223.20">
        <route edges="gneE1 -gneE2"/>
    </vehicle>
    <vehicle id="251" depart="225.90">
        <route edges="gneE2 -gneE1"/>
    </vehicle>
    <vehicle id="254" depart="228.60">
        <route edges="gneE3 -gneE1"/>
    </vehicle>
    <vehicle id="255" depart="229.50">
        <route edges="gneE2 -gneE1"/>
    </vehicle>
    <vehicle id="256" depart="230.40">
        <route edges="gneE3 -gneE2"/>
    </vehicle>
    <vehicle id="257" depart="231.30">
        <route edges="gneE3 -gneE2"/>
    </vehicle>
    <vehicle id="258" depart="232.20">
        <route edges="gneE3 -gneE1"/>
    </vehicle>
    <vehicle id="259" depart="233.10">
        <route edges="gneE3 -gneE2"/>
    </vehicle>
    <vehicle id="262" depart="235.80">
        <route edges="gneE3 -gneE2"/>
    </vehicle>
    <vehicle id="264" depart="237.60">
        <route edges="gneE3 -gneE2"/>
    </vehicle>
    <vehicle id="266" depart="239.40">
        <route edges="gneE3 -gneE2"/>
    </vehicle>
    <vehicle id="267" depart="240.30">
        <route edges="gneE2 -gneE1"/>
    </vehicle>
    <vehicle id="268" depart="241.20">
        <route edges="gneE3 -gneE2"/>
    </vehicle>
    <vehicle id="269" depart="242.10">
        <route edges="gneE1 -gneE2"/>
    </vehicle>
    <vehicle id="270" depart="243.00">
        <route edges="gneE2 -gneE1"/>
    </vehicle>
    <vehicle id="272" depart="244.80">
        <route edges="gneE1 -gneE2"/>
    </vehicle>
    <vehicle id="275" depart="247.50">
        <route edges="gneE1 -gneE2"/>
    </vehicle>
    <vehicle id="276" depart="248.40">
        <route edges="gneE3 -gneE1"/>
    </vehicle>
    <vehicle id="277" depart="249.30">
        <route edges="gneE3 -gneE1"/>
    </vehicle>
    <vehicle id="278" depart="250.20">
        <route edges="gneE2 -gneE1"/>
    </vehicle>
    <vehicle id="279" depart="251.10">
        <route edges="gneE3 -gneE2"/>
    </vehicle>
    <vehicle id="280" depart="252.00">
        <route edges="gneE1 -gneE2"/>
    </vehicle>
    <vehicle id="281" depart="252.90">
        <route edges="gneE3 -gneE1"/>
    </vehicle>
    <vehicle id="283" depart="254.70">
        <route edges="gneE1 -gneE2"/>
    </vehicle>
    <vehicle id="284" depart="255.60">
        <route edges="gneE2 -gneE1"/>
    </vehicle>
    <vehicle id="285" depart="256.50">
        <route edges="gneE3 -gneE1"/>
    </vehicle>
    <vehicle id="287" depart="258.30">
        <route edges="gneE1 -gneE2"/>
    </vehicle>
    <vehicle id="288" depart="259.20">
        <route edges="gneE3 -gneE1"/>
    </vehicle>
    <vehicle id="289" depart="260.10">
        <route edges="gneE2 -gneE1"/>
    </vehicle>
    <vehicle id="290" depart="261.00">
        <route edges="gneE3 -gneE1"/>
    </vehicle>
    <vehicle id="291" depart="261.90">
        <route edges="gneE3 -gneE1"/>
    </vehicle>
    <vehicle id="292" depart="262.80">
        <route edges="gneE1 -gneE2"/>
    </vehicle>
    <vehicle id="293" depart="263.70">
        <route edges="gneE1 -gneE2"/>
    </vehicle>
    <vehicle id="294" depart="264.60">
        <route edges="gneE2 -gneE1"/>
    </vehicle>
    <vehicle id="295" depart="265.50">
        <route edges="gneE1 -gneE2"/>
    </vehicle>
    <vehicle id="296" depart="266.40">
        <route edges="gneE2 -gneE1"/>
    </vehicle>
    <vehicle id="297" depart="267.30">
        <route edges="gneE1 -gneE2"/>
    </vehicle>
    <vehicle id="298" depart="268.20">
        <route edges="gneE3 -gneE1"/>
    </vehicle>
    <vehicle id="299" depart="269.10">
        <route edges="gneE2 -gneE1"/>
    </vehicle>
    <vehicle id="300" depart="270.00">
        <route edges="gneE3 -gneE1"/>
    </vehicle>
    <vehicle id="301" depart="270.90">
        <route edges="gneE3 -gneE2"/>
    </vehicle>
    <vehicle id="303" depart="272.70">
        <route edges="gneE1 -gneE2"/>
    </vehicle>
    <vehicle id="305" depart="274.50">
        <route edges="gneE3 -gneE1"/>
    </vehicle>
    <vehicle id="306" depart="275.40">
        <route edges="gneE1 -gneE2"/>
    </vehicle>
    <vehicle id="307" depart="276.30">
        <route edges="gneE2 -gneE1"/>
    </vehicle>
    <vehicle id="308" depart="277.20">
        <route edges="gneE1 -gneE2"/>
    </vehicle>
    <vehicle id="311" depart="279.90">
        <route edges="gneE2 -gneE1"/>
    </vehicle>
    <vehicle id="314" depart="282.60">
        <route edges="gneE1 -gneE2"/>
    </vehicle>
    <vehicle id="315" depart="283.50">
        <route edges="gneE2 -gneE1"/>
    </vehicle>
    <vehicle id="317" depart="285.30">
        <route edges="gneE3 -gneE2"/>
    </vehicle>
    <vehicle id="320" depart="288.00">
        <route edges="gneE3 -gneE2"/>
    </vehicle>
    <vehicle id="321" depart="288.90">
        <route edges="gneE3 -gneE2"/>
    </vehicle>
    <vehicle id="322" depart="289.80">
        <route edges="gneE3 -gneE1"/>
    </vehicle>
    <vehicle id="324" depart="291.60">
        <route edges="gneE3 -gneE1"/>
    </vehicle>
    <vehicle id="325" depart="292.50">
        <route edges="gneE1 -gneE2"/>
    </vehicle>
    <vehicle id="329" depart="296.10">
        <route edges="gneE3 -gneE1"/>
    </vehicle>
    <vehicle id="330" depart="297.00">
        <route edges="gneE1 -gneE2"/>
    </vehicle>
    <vehicle id="331" depart="297.90">
        <route edges="gneE1 -gneE2"/>
    </vehicle>
    <vehicle id="333" depart="299.70">
        <route edges="gneE3 -gneE2"/>
    </vehicle>
    <vehicle id="336" depart="302.40">
        <route edges="gneE3 -gneE2"/>
    </vehicle>
    <vehicle id="337" depart="303.30">
        <route edges="gneE3 -gneE2"/>
    </vehicle>
    <vehicle id="338" depart="304.20">
        <route edges="gneE2 -gneE1"/>
    </vehicle>
    <vehicle id="339" depart="305.10">
        <route edges="gneE3 -gneE1"/>
    </vehicle>
    <vehicle id="340" depart="306.00">
        <route edges="gneE3 -gneE2"/>
    </vehicle>
    <vehicle id="341" depart="306.90">
        <route edges="gneE3 -gneE2"/>
    </vehicle>
    <vehicle id="342" depart="307.80">
        <route edges="gneE2 -gneE1"/>
    </vehicle>
    <vehicle id="344" depart="309.60">
        <route edges="gneE2 -gneE1"/>
    </vehicle>
    <vehicle id="345" depart="310.50">
        <route edges="gneE2 -gneE1"/>
    </vehicle>
    <vehicle id="349" depart="314.10">
        <route edges="gneE3 -gneE1"/>
    </vehicle>
    <vehicle id="350" depart="315.00">
        <route edges="gneE3 -gneE1"/>
    </vehicle>
    <vehicle id="353" depart="317.70">
        <route edges="gneE3 -gneE2"/>
    </vehicle>
    <vehicle id="354" depart="318.60">
        <route edges="gneE2 -gneE1"/>
    </vehicle>
    <vehicle id="356" depart="320.40">
        <route edges="gneE3 -gneE2"/>
    </vehicle>
    <vehicle id="357" depart="321.30">
        <route edges="gneE3 -gneE1"/>
    </vehicle>
    <vehicle id="358" depart="322.20">
        <route edges="gneE3 -gneE2"/>
    </vehicle>
    <vehicle id="359" depart="323.10">
        <route edges="gneE3 -gneE1"/>
    </vehicle>
    <vehicle id="366" depart="329.40">
        <route edges="gneE1 -gneE2"/>
    </vehicle>
    <vehicle id="367" depart="330.30">
        <route edges="gneE3 -gneE2"/>
    </vehicle>
    <vehicle id="370" depart="333.00">
        <route edges="gneE3 -gneE2"/>
    </vehicle>
    <vehicle id="372" depart="334.80">
        <route edges="gneE2 -gneE1"/>
    </vehicle>
    <vehicle id="373" depart="335.70">
        <route edges="gneE2 -gneE1"/>
    </vehicle>
    <vehicle id="374" depart="336.60">
        <route edges="gneE3 -gneE1"/>
    </vehicle>
    <vehicle id="375" depart="337.50">
        <route edges="gneE3 -gneE1"/>
    </vehicle>
    <vehicle id="376" depart="338.40">
        <route edges="gneE1 -gneE2"/>
    </vehicle>
    <vehicle id="377" depart="339.30">
        <route edges="gneE1 -gneE2"/>
    </vehicle>
    <vehicle id="378" depart="340.20">
        <route edges="gneE1 -gneE2"/>
    </vehicle>
    <vehicle id="380" depart="342.00">
        <route edges="gneE3 -gneE2"/>
    </vehicle>
    <vehicle id="381" depart="342.90">
        <route edges="gneE3 -gneE2"/>
    </vehicle>
    <vehicle id="382" depart="343.80">
        <route edges="gneE3 -gneE1"/>
    </vehicle>
    <vehicle id="383" depart="344.70">
        <route edges="gneE2 -gneE1"/>
    </vehicle>
    <vehicle id="388" depart="349.20">
        <route edges="gneE3 -gneE1"/>
    </vehicle>
    <vehicle id="390" depart="351.00">
        <route edges="gneE3 -gneE2"/>
    </vehicle>
    <vehicle id="391" depart="351.90">
        <route edges="gneE2 -gneE1"/>
    </vehicle>
    <vehicle id="393" depart="353.70">
        <route edges="gneE3 -gneE1"/>
    </vehicle>
    <vehicle id="394" depart="354.60">
        <route edges="gneE2 -gneE1"/>
    </vehicle>
    <vehicle id="395" depart="355.50">
        <route edges="gneE1 -gneE2"/>
    </vehicle>
    <vehicle id="397" depart="357.30">
        <route edges="gneE3 -gneE1"/>
    </vehicle>
    <vehicle id="398" depart="358.20">
        <route edges="gneE3 -gneE2"/>
    </vehicle>
    <vehicle id="399" depart="359.10">
        <route edges="gneE3 -gneE2"/>
    </vehicle>
    <vehicle id="401" depart="360.90">
        <route edges="gneE1 -gneE2"/>
    </vehicle>
    <vehicle id="402" depart="361.80">
        <route edges="gneE3 -gneE1"/>
    </vehicle>
    <vehicle id="404" depart="363.60">
        <route edges="gneE2 -gneE1"/>
    </vehicle>
    <vehicle id="406" depart="365.40">
        <route edges="gneE3 -gneE2"/>
    </vehicle>
    <vehicle id="407" depart="366.30">
        <route edges="gneE1 -gneE2"/>
    </vehicle>
    <vehicle id="408" depart="367.20">
        <route edges="gneE1 -gneE2"/>
    </vehicle>
    <vehicle id="411" depart="369.90">
        <route edges="gneE1 -gneE2"/>
    </vehicle>
    <vehicle id="412" depart="370.80">
        <route edges="gneE1 -gneE2"/>
    </vehicle>
    <vehicle id="414" depart="372.60">
        <route edges="gneE1 -gneE2"/>
    </vehicle>
    <vehicle id="415" depart="373.50">
        <route edges="gneE2 -gneE1"/>
    </vehicle>
    <vehicle id="416" depart="374.40">
        <route edges="gneE2 -gneE1"/>
    </vehicle>
    <vehicle id="417" depart="375.30">
        <route edges="gneE2 -gneE1"/>
    </vehicle>
    <vehicle id="418" depart="376.20">
        <route edges="gneE3 -gneE2"/>
    </vehicle>
    <vehicle id="419" depart="377.10">
        <route edges="gneE1 -gneE2"/>
    </vehicle>
    <vehicle id="420" depart="378.00">
        <route edges="gneE3 -gneE1"/>
    </vehicle>
    <vehicle id="421" depart="378.90">
        <route edges="gneE1 -gneE2"/>
    </vehicle>
    <vehicle id="423" depart="380.70">
        <route edges="gneE3 -gneE2"/>
    </vehicle>
    <vehicle id="424" depart="381.60">
        <route edges="gneE3 -gneE2"/>
    </vehicle>
    <vehicle id="425" depart="382.50">
        <route edges="gneE2 -gneE1"/>
    </vehicle>
    <vehicle id="427" depart="384.30">
        <route edges="gneE1 -gneE2"/>
    </vehicle>
    <vehicle id="428" depart="385.20">
        <route edges="gneE3 -gneE1"/>
    </vehicle>
    <vehicle id="429" depart="386.10">
        <route edges="gneE3 -gneE1"/>
    </vehicle>
    <vehicle id="430" depart="387.00">
        <route edges="gneE1 -gneE2"/>
    </vehicle>
    <vehicle id="432" depart="388.80">
        <route edges="gneE3 -gneE1"/>
    </vehicle>
    <vehicle id="433" depart="389.70">
        <route edges="gneE3 -gneE1"/>
    </vehicle>
    <vehicle id="434" depart="390.60">
        <route edges="gneE3 -gneE2"/>
    </vehicle>
    <vehicle id="436" depart="392.40">
        <route edges="gneE1 -gneE2"/>
    </vehicle>
    <vehicle id="437" depart="393.30">
        <route edges="gneE3 -gneE2"/>
    </vehicle>
    <vehicle id="439" depart="395.10">
        <route edges="gneE3 -gneE2"/>
    </vehicle>
    <vehicle id="440" depart="396.00">
        <route edges="gneE3 -gneE2"/>
    </vehicle>
    <vehicle id="443" depart="398.70">
        <route edges="gneE2 -gneE1"/>
    </vehicle>
    <vehicle id="444" depart="399.60">
        <route edges="gneE3 -gneE2"/>
    </vehicle>
    <vehicle id="446" depart="401.40">
        <route edges="gneE3 -gneE1"/>
    </vehicle>
    <vehicle id="447" depart="402.30">
        <route edges="gneE1 -gneE2"/>
    </vehicle>
    <vehicle id="448" depart="403.20">
        <route edges="gneE1 -gneE2"/>
    </vehicle>
    <vehicle id="449" depart="404.10">
        <route edges="gneE1 -gneE2"/>
    </vehicle>
    <vehicle id="451" depart="405.90">
        <route edges="gneE3 -gneE1"/>
    </vehicle>
    <vehicle id="452" depart="406.80">
        <route edges="gneE1 -gneE2"/>
    </vehicle>
    <vehicle id="453" depart="407.70">
        <route edges="gneE2 -gneE1"/>
    </vehicle>
    <vehicle id="454" depart="408.60">
        <route edges="gneE1 -gneE2"/>
    </vehicle>
    <vehicle id="455" depart="409.50">
        <route edges="gneE2 -gneE1"/>
    </vehicle>
    <vehicle id="456" depart="410.40">
        <route edges="gneE3 -gneE2"/>
    </vehicle>
    <vehicle id="459" depart="413.10">
        <route edges="gneE1 -gneE2"/>
    </vehicle>
    <vehicle id="460" depart="414.00">
        <route edges="gneE3 -gneE1"/>
    </vehicle>
    <vehicle id="463" depart="416.70">
        <route edges="gneE3 -gneE2"/>
    </vehicle>
    <vehicle id="465" depart="418.50">
        <route edges="gneE3 -gneE1"/>
    </vehicle>
    <vehicle id="466" depart="419.40">
        <route edges="gneE2 -gneE1"/>
    </vehicle>
    <vehicle id="469" depart="422.10">
        <route edges="gneE3 -gneE2"/>
    </vehicle>
    <vehicle id="470" depart="423.00">
        <route edges="gneE2 -gneE1"/>
    </vehicle>
    <vehicle id="471" depart="423.90">
        <route edges="gneE3 -gneE1"/>
    </vehicle>
    <vehicle id="475" depart="427.50">
        <route edges="gneE2 -gneE1"/>
    </vehicle>
    <vehicle id="477" depart="429.30">
        <route edges="gneE3 -gneE1"/>
    </vehicle>
    <vehicle id="478" depart="430.20">
        <route edges="gneE1 -gneE2"/>
    </vehicle>
    <vehicle id="483" depart="434.70">
        <route edges="gneE3 -gneE2"/>
    </vehicle>
    <vehicle id="484" depart="435.60">
        <route edges="gneE1 -gneE2"/>
    </vehicle>
    <vehicle id="486" depart="437.40">
        <route edges="gneE1 -gneE2"/>
    </vehicle>
    <vehicle id="487" depart="438.30">