<?xml version="1.0" encoding="UTF-8"?>

<!-- generated on Sun Sep 23 22:07:52 2018 by SUMO duarouter Version 0.30.0
<?xml version="1.0" encoding="UTF-8"?>

<configuration xmlns:xsi="http://www.w3.org/2001/XMLSchema-instance" xsi:noNamespaceSchemaLocation="http://sumo.dlr.de/xsd/duarouterConfiguration.xsd">

    <input>
        <net-file value="simple_T/simple_T.net.xml"/>
        <route-files value="trips.trips.xml"/>
    </input>

    <output>
        <output-file value="simple_T/route/simple_T-1.3-0.rou.xml"/>
    </output>

    <processing>
        <ignore-errors value="true"/>
    </processing>

    <time>
        <begin value="0.0"/>
        <end value="10800.0"/>
    </time>

    <report>
        <no-warnings value="true"/>
        <no-step-log value="true"/>
    </report>

</configuration>
-->

<routes xmlns:xsi="http://www.w3.org/2001/XMLSchema-instance" xsi:noNamespaceSchemaLocation="http://sumo.dlr.de/xsd/routes_file.xsd">
    <vehicle id="0" depart="0.00">
        <route edges="gneE3 -gneE1"/>
    </vehicle>
    <vehicle id="1" depart="1.30">
        <route edges="gneE3 -gneE2"/>
    </vehicle>
    <vehicle id="2" depart="2.60">
        <route edges="gneE3 -gneE2"/>
    </vehicle>
    <vehicle id="3" depart="3.90">
        <route edges="gneE2 -gneE1"/>
    </vehicle>
    <vehicle id="4" depart="5.20">
        <route edges="gneE3 -gneE2"/>
    </vehicle>
    <vehicle id="5" depart="6.50">
        <route edges="gneE1 -gneE2"/>
    </vehicle>
    <vehicle id="6" depart="7.80">
        <route edges="gneE1 -gneE2"/>
    </vehicle>
    <vehicle id="7" depart="9.10">
        <route edges="gneE3 -gneE2"/>
    </vehicle>
    <vehicle id="8" depart="10.40">
        <route edges="gneE3 -gneE1"/>
    </vehicle>
    <vehicle id="9" depart="11.70">
        <route edges="gneE1 -gneE2"/>
    </vehicle>
    <vehicle id="10" depart="13.00">
        <route edges="gneE3 -gneE2"/>
    </vehicle>
    <vehicle id="11" depart="14.30">
        <route edges="gneE2 -gneE1"/>
    </vehicle>
    <vehicle id="12" depart="15.60">
        <route edges="gneE3 -gneE1"/>
    </vehicle>
    <vehicle id="13" depart="16.90">
        <route edges="gneE1 -gneE2"/>
    </vehicle>
    <vehicle id="14" depart="18.20">
        <route edges="gneE3 -gneE1"/>
    </vehicle>
    <vehicle id="15" depart="19.50">
        <route edges="gneE3 -gneE2"/>
    </vehicle>
    <vehicle id="16" depart="20.80">
        <route edges="gneE1 -gneE2"/>
    </vehicle>
    <vehicle id="17" depart="22.10">
        <route edges="gneE2 -gneE1"/>
    </vehicle>
    <vehicle id="18" depart="23.40">
        <route edges="gneE2 -gneE1"/>
    </vehicle>
    <vehicle id="19" depart="24.70">
        <route edges="gneE1 -gneE2"/>
    </vehicle>
    <vehicle id="20" depart="26.00">
        <route edges="gneE1 -gneE2"/>
    </vehicle>
    <vehicle id="21" depart="27.30">
        <route edges="gneE3 -gneE1"/>
    </vehicle>
    <vehicle id="22" depart="28.60">
        <route edges="gneE1 -gneE2"/>
    </vehicle>
    <vehicle id="23" depart="29.90">
        <route edges="gneE2 -gneE1"/>
    </vehicle>
    <vehicle id="24" depart="31.20">
        <route edges="gneE3 -gneE1"/>
    </vehicle>
    <vehicle id="25" depart="32.50">
        <route edges="gneE3 -gneE1"/>
    </vehicle>
    <vehicle id="26" depart="33.80">
        <route edges="gneE3 -gneE1"/>
    </vehicle>
    <vehicle id="27" depart="35.10">
        <route edges="gneE3 -gneE1"/>
    </vehicle>
    <vehicle id="28" depart="36.40">
        <route edges="gneE3 -gneE1"/>
    </vehicle>
    <vehicle id="29" depart="37.70">
        <route edges="gneE3 -gneE2"/>
    </vehicle>
    <vehicle id="30" depart="39.00">
        <route edges="gneE3 -gneE1"/>
    </vehicle>
    <vehicle id="31" depart="40.30">
        <route edges="gneE3 -gneE2"/>
    </vehicle>
    <vehicle id="32" depart="41.60">
        <route edges="gneE1 -gneE2"/>
    </vehicle>
    <vehicle id="33" depart="42.90">
        <route edges="gneE3 -gneE2"/>
    </vehicle>
    <vehicle id="34" depart="44.20">
        <route edges="gneE3 -gneE2"/>
    </vehicle>
    <vehicle id="35" depart="45.50">
        <route edges="gneE1 -gneE2"/>
    </vehicle>
    <vehicle id="36" depart="46.80">
        <route edges="gneE3 -gneE2"/>
    </vehicle>
    <vehicle id="37" depart="48.10">
        <route edges="gneE1 -gneE2"/>
    </vehicle>
    <vehicle id="38" depart="49.40">
        <route edges="gneE1 -gneE2"/>
    </vehicle>
    <vehicle id="39" depart="50.70">
        <route edges="gneE3 -gneE2"/>
    </vehicle>
    <vehicle id="40" depart="52.00">
        <route edges="gneE2 -gneE1"/>
    </vehicle>
    <vehicle id="41" depart="53.30">
        <route edges="gneE3 -gneE2"/>
    </vehicle>
    <vehicle id="42" depart="54.60">
        <route edges="gneE2 -gneE1"/>
    </vehicle>
    <vehicle id="43" depart="55.90">
        <route edges="gneE3 -gneE1"/>
    </vehicle>
    <vehicle id="44" depart="57.20">
        <route edges="gneE3 -gneE1"/>
    </vehicle>
    <vehicle id="45" depart="58.50">
        <route edges="gneE2 -gneE1"/>
    </vehicle>
    <vehicle id="46" depart="59.80">
        <route edges="gneE3 -gneE1"/>
    </vehicle>
    <vehicle id="47" depart="61.10">
        <route edges="gneE1 -gneE2"/>
    </vehicle>
    <vehicle id="48" depart="62.40">
        <route edges="gneE1 -gneE2"/>
    </vehicle>
    <vehicle id="49" depart="63.70">
        <route edges="gneE3 -gneE2"/>
    </vehicle>
    <vehicle id="50" depart="65.00">
        <route edges="gneE3 -gneE1"/>
    </vehicle>
    <vehicle id="51" depart="66.30">
        <route edges="gneE1 -gneE2"/>
    </vehicle>
    <vehicle id="52" depart="67.60">
        <route edges="gneE2 -gneE1"/>
    </vehicle>
    <vehicle id="53" depart="68.90">
        <route edges="gneE1 -gneE2"/>
    </vehicle>
    <vehicle id="54" depart="70.20">
        <route edges="gneE1 -gneE2"/>
    </vehicle>
    <vehicle id="55" depart="71.50">
        <route edges="gneE2 -gneE1"/>
    </vehicle>
    <vehicle id="56" depart="72.80">
        <route edges="gneE3 -gneE2"/>
    </vehicle>
    <vehicle id="57" depart="74.10">
        <route edges="gneE1 -gneE2"/>
    </vehicle>
    <vehicle id="58" depart="75.40">
        <route edges="gneE3 -gneE1"/>
    </vehicle>
    <vehicle id="59" depart="76.70">
        <route edges="gneE1 -gneE2"/>
    </vehicle>
    <vehicle id="60" depart="78.00">
        <route edges="gneE3 -gneE2"/>
    </vehicle>
    <vehicle id="61" depart="79.30">
        <route edges="gneE1 -gneE2"/>
    </vehicle>
    <vehicle id="62" depart="80.60">
        <route edges="gneE3 -gneE2"/>
    </vehicle>
    <vehicle id="63" depart="81.90">
        <route edges="gneE3 -gneE2"/>
    </vehicle>
    <vehicle id="64" depart="83.20">
        <route edges="gneE1 -gneE2"/>
    </vehicle>
    <vehicle id="65" depart="84.50">
        <route edges="gneE3 -gneE1"/>
    </vehicle>
    <vehicle id="66" depart="85.80">
        <route edges="gneE3 -gneE2"/>
    </vehicle>
    <vehicle id="67" depart="87.10">
        <route edges="gneE1 -gneE2"/>
    </vehicle>
    <vehicle id="68" depart="88.40">
        <route edges="gneE3 -gneE1"/>
    </vehicle>
    <vehicle id="69" depart="89.70">
        <route edges="gneE1 -gneE2"/>
    </vehicle>
    <vehicle id="70" depart="91.00">
        <route edges="gneE2 -gneE1"/>
    </vehicle>
    <vehicle id="71" depart="92.30">
        <route edges="gneE2 -gneE1"/>
    </vehicle>
    <vehicle id="72" depart="93.60">
        <route edges="gneE3 -gneE1"/>
    </vehicle>
    <vehicle id="73" depart="94.90">
        <route edges="gneE3 -gneE2"/>
    </vehicle>
    <vehicle id="74" depart="96.20">
        <route edges="gneE3 -gneE1"/>
    </vehicle>
    <vehicle id="75" depart="97.50">
        <route edges="gneE1 -gneE2"/>
    </vehicle>
    <vehicle id="76" depart="98.80">
        <route edges="gneE2 -gneE1"/>
    </vehicle>
    <vehicle id="77" depart="100.10">
        <route edges="gneE3 -gneE2"/>
    </vehicle>
    <vehicle id="78" depart="101.40">
        <route edges="gneE3 -gneE1"/>
    </vehicle>
    <vehicle id="79" depart="102.70">
        <route edges="gneE2 -gneE1"/>
    </vehicle>
    <vehicle id="80" depart="104.00">
        <route edges="gneE2 -gneE1"/>
    </vehicle>
    <vehicle id="81" depart="105.30">
        <route edges="gneE3 -gneE1"/>
    </vehicle>
    <vehicle id="82" depart="106.60">
        <route edges="gneE2 -gneE1"/>
    </vehicle>
    <vehicle id="83" depart="107.90">
        <route edges="gneE2 -gneE1"/>
    </vehicle>
    <vehicle id="84" depart="109.20">
        <route edges="gneE1 -gneE2"/>
    </vehicle>
    <vehicle id="85" depart="110.50">
        <route edges="gneE3 -gneE2"/>
    </vehicle>
    <vehicle id="86" depart="111.80">
        <route edges="gneE1 -gneE2"/>
    </vehicle>
    <vehicle id="87" depart="113.10">
        <route edges="gneE1 -gneE2"/>
    </vehicle>
    <vehicle id="88" depart="114.40">
        <route edges="gneE2 -gneE1"/>
    </vehicle>
    <vehicle id="89" depart="115.70">
        <route edges="gneE2 -gneE1"/>
    </vehicle>
    <vehicle id="90" depart="117.00">
        <route edges="gneE3 -gneE1"/>
    </vehicle>
    <vehicle id="91" depart="118.30">
        <route edges="gneE3 -gneE1"/>
    </vehicle>
    <vehicle id="92" depart="119.60">
        <route edges="gneE1 -gneE2"/>
    </vehicle>
    <vehicle id="93" depart="120.90">
        <route edges="gneE3 -gneE2"/>
    </vehicle>
    <vehicle id="94" depart="122.20">
        <route edges="gneE3 -gneE2"/>
    </vehicle>
    <vehicle id="95" depart="123.50">
        <route edges="gneE3 -gneE1"/>
    </vehicle>
    <vehicle id="96" depart="124.80">
        <route edges="gneE1 -gneE2"/>
    </vehicle>
    <vehicle id="97" depart="126.10">
        <route edges="gneE2 -gneE1"/>
    </vehicle>
    <vehicle id="98" depart="127.40">
        <route edges="gneE1 -gneE2"/>
    </vehicle>
    <vehicle id="99" depart="128.70">
        <route edges="gneE3 -gneE1"/>
    </vehicle>
    <vehicle id="100" depart="130.00">
        <route edges="gneE1 -gneE2"/>
    </vehicle>
    <vehicle id="101" depart="131.30">
        <route edges="gneE1 -gneE2"/>
    </vehicle>
    <vehicle id="102" depart="132.60">
        <route edges="gneE3 -gneE2"/>
    </vehicle>
    <vehicle id="103" depart="133.90">
        <route edges="gneE3 -gneE2"/>
    </vehicle>
    <vehicle id="104" depart="135.20">
        <route edges="gneE2 -gneE1"/>
    </vehicle>
    <vehicle id="105" depart="136.50">
        <route edges="gneE3 -gneE1"/>
    </vehicle>
    <vehicle id="106" depart="137.80">
        <route edges="gneE1 -gneE2"/>
    </vehicle>
    <vehicle id="107" depart="139.10">
        <route edges="gneE1 -gneE2"/>
    </vehicle>
    <vehicle id="108" depart="140.40">
        <route edges="gneE3 -gneE2"/>
    </vehicle>
    <vehicle id="109" depart="141.70">
        <route edges="gneE3 -gneE1"/>
    </vehicle>
    <vehicle id="110" depart="143.00">
        <route edges="gneE3 -gneE2"/>
    </vehicle>
    <vehicle id="111" depart="144.30">
        <route edges="gneE2 -gneE1"/>
    </vehicle>
    <vehicle id="112" depart="145.60">
        <route edges="gneE3 -gneE1"/>
    </vehicle>
    <vehicle id="113" depart="146.90">
        <route edges="gneE3 -gneE2"/>
    </vehicle>
    <vehicle id="114" depart="148.20">
        <route edges="gneE1 -gneE2"/>
    </vehicle>
    <vehicle id="115" depart="149.50">
        <route edges="gneE3 -gneE1"/>
    </vehicle>
    <vehicle id="116" depart="150.80">
        <route edges="gneE3 -gneE1"/>
    </vehicle>
    <vehicle id="117" depart="152.10">
        <route edges="gneE3 -gneE1"/>
    </vehicle>
    <vehicle id="118" depart="153.40">
        <route edges="gneE1 -gneE2"/>
    </vehicle>
    <vehicle id="119" depart="154.70">
        <route edges="gneE3 -gneE2"/>
    </vehicle>
    <vehicle id="120" depart="156.00">
        <route edges="gneE2 -gneE1"/>
    </vehicle>
    <vehicle id="121" depart="157.30">
        <route edges="gneE3 -gneE2"/>
    </vehicle>
    <vehicle id="122" depart="158.60">
        <route edges="gneE1 -gneE2"/>
    </vehicle>
    <vehicle id="123" depart="159.90">
        <route edges="gneE2 -gneE1"/>
    </vehicle>
    <vehicle id="124" depart="161.20">
        <route edges="gneE1 -gneE2"/>
    </vehicle>
    <vehicle id="125" depart="162.50">
        <route edges="gneE3 -gneE1"/>
    </vehicle>
    <vehicle id="126" depart="163.80">
        <route edges="gneE1 -gneE2"/>
    </vehicle>
    <vehicle id="127" depart="165.10">
        <route edges="gneE3 -gneE2"/>
    </vehicle>
    <vehicle id="128" depart="166.40">
        <route edges="gneE2 -gneE1"/>
    </vehicle>
    <vehicle id="129" depart="167.70">
        <route edges="gneE3 -gneE2"/>
    </vehicle>
    <vehicle id="130" depart="169.00">
        <route edges="gneE3 -gneE2"/>
    </vehicle>
    <vehicle id="131" depart="170.30">
        <route edges="gneE1 -gneE2"/>
    </vehicle>
    <vehicle id="132" depart="171.60">
        <route edges="gneE3 -gneE2"/>
    </vehicle>
    <vehicle id="133" depart="172.90">
        <route edges="gneE2 -gneE1"/>
    </vehicle>
    <vehicle id="134" depart="174.20">
        <route edges="gneE2 -gneE1"/>
    </vehicle>
    <vehicle id="135" depart="175.50">
        <route edges="gneE3 -gneE1"/>
    </vehicle>
    <vehicle id="136" depart="176.80">
        <route edges="gneE2 -gneE1"/>
    </vehicle>
    <vehicle id="137" depart="178.10">
        <route edges="gneE3 -gneE2"/>
    </vehicle>
    <vehicle id="138" depart="179.40">
        <route edges="gneE2 -gneE1"/>
    </vehicle>
    <vehicle id="139" depart="180.70">
        <route edges="gneE3 -gneE1"/>
    </vehicle>
    <vehicle id="140" depart="182.00">
        <route edges="gneE1 -gneE2"/>
    </vehicle>
    <vehicle id="141" depart="183.30">
        <route edges="gneE3 -gneE2"/>
    </vehicle>
    <vehicle id="142" depart="184.60">
        <route edges="gneE2 -gneE1"/>
    </vehicle>
    <vehicle id="143" depart="185.90">
        <route edges="gneE1 -gneE2"/>
    </vehicle>
    <vehicle id="144" depart="187.20">
        <route edges="gneE1 -gneE2"/>
    </vehicle>
    <vehicle id="145" depart="188.50">
        <route edges="gneE3 -gneE1"/>
    </vehicle>
    <vehicle id="146" depart="189.80">
        <route edges="gneE1 -gneE2"/>
    </vehicle>
    <vehicle id="147" depart="191.10">
        <route edges="gneE1 -gneE2"/>
    </vehicle>
    <vehicle id="148" depart="192.40">
        <route edges="gneE3 -gneE2"/>
    </vehicle>
    <vehicle id="149" depart="193.70">
        <route edges="gneE3 -gneE2"/>
    </vehicle>
    <vehicle id="150" depart="195.00">
        <route edges="gneE3 -gneE2"/>
    </vehicle>
    <vehicle id="151" depart="196.30">
        <route edges="gneE1 -gneE2"/>
    </vehicle>
    <vehicle id="152" depart="197.60">
        <route edges="gneE3 -gneE1"/>
    </vehicle>
    <vehicle id="153" depart="198.90">
        <route edges="gneE2 -gneE1"/>
    </vehicle>
    <vehicle id="154" depart="200.20">
        <route edges="gneE1 -gneE2"/>
    </vehicle>
    <vehicle id="155" depart="201.50">
        <route edges="gneE3 -gneE1"/>
    </vehicle>
    <vehicle id="156" depart="202.80">
        <route edges="gneE3 -gneE1"/>
    </vehicle>
    <vehicle id="157" depart="204.10">
        <route edges="gneE3 -gneE1"/>
    </vehicle>
    <vehicle id="158" depart="205.40">
        <route edges="gneE3 -gneE2"/>
    </vehicle>
    <vehicle id="159" depart="206.70">
        <route edges="gneE3 -gneE1"/>
    </vehicle>
    <vehicle id="160" depart="208.00">
        <route edges="gneE1 -gneE2"/>
    </vehicle>
    <vehicle id="161" depart="209.30">
        <route edges="gneE2 -gneE1"/>
    </vehicle>
    <vehicle id="162" depart="210.60">
        <route edges="gneE3 -gneE2"/>
    </vehicle>
    <vehicle id="163" depart="211.90">
        <route edges="gneE2 -gneE1"/>
    </vehicle>
    <vehicle id="164" depart="213.20">
        <route edges="gneE2 -gneE1"/>
    </vehicle>
    <vehicle id="165" depart="214.50">
        <route edges="gneE3 -gneE1"/>
    </vehicle>
    <vehicle id="166" depart="215.80">
        <route edges="gneE2 -gneE1"/>
    </vehicle>
    <vehicle id="167" depart="217.10">
        <route edges="gneE2 -gneE1"/>
    </vehicle>
    <vehicle id="168" depart="218.40">
        <route edges="gneE3 -gneE1"/>
    </vehicle>
    <vehicle id="169" depart="219.70">
        <route edges="gneE3 -gneE1"/>
    </vehicle>
    <vehicle id="170" depart="221.00">
        <route edges="gneE2 -gneE1"/>
    </vehicle>
    <vehicle id="171" depart="222.30">
        <route edges="gneE3 -gneE2"/>
    </vehicle>
    <vehicle id="172" depart="223.60">
        <route edges="gneE3 -gneE2"/>
    </vehicle>
    <vehicle id="173" depart="224.90">
        <route edges="gneE3 -gneE1"/>
    </vehicle>
    <vehicle id="174" depart="226.20">
        <route edges="gneE2 -gneE1"/>
    </vehicle>
    <vehicle id="175" depart="227.50">
        <route edges="gneE2 -gneE1"/>
    </vehicle>
    <vehicle id="176" depart="228.80">
        <route edges="gneE2 -gneE1"/>
    </vehicle>
    <vehicle id="177" depart="230.10">
        <route edges="gneE2 -gneE1"/>
    </vehicle>
    <vehicle id="178" depart="231.40">
        <route edges="gneE2 -gneE1"/>
    </vehicle>
    <vehicle id="179" depart="232.70">
        <route edges="gneE2 -gneE1"/>
    </vehicle>
    <vehicle id="180" depart="234.00">
        <route edges="gneE3 -gneE1"/>
    </vehicle>
    <vehicle id="181" depart="235.30">
        <route edges="gneE3 -gneE2"/>
    </vehicle>
    <vehicle id="182" depart="236.60">
        <route edges="gneE1 -gneE2"/>
    </vehicle>
    <vehicle id="183" depart="237.90">
        <route edges="gneE3 -gneE1"/>
    </vehicle>
    <vehicle id="184" depart="239.20">
        <route edges="gneE1 -gneE2"/>
    </vehicle>
    <vehicle id="185" depart="240.50">
        <route edges="gneE3 -gneE1"/>
    </vehicle>
    <vehicle id="186" depart="241.80">
        <route edges="gneE1 -gneE2"/>
    </vehicle>
    <vehicle id="187" depart="243.10">
        <route edges="gneE3 -gneE1"/>
    </vehicle>
    <vehicle id="188" depart="244.40">
        <route edges="gneE3 -gneE1"/>
    </vehicle>
    <vehicle id="189" depart="245.70">
        <route edges="gneE3 -gneE1"/>
    </vehicle>
    <vehicle id="190" depart="247.00">
        <route edges="gneE3 -gneE2"/>
    </vehicle>
    <vehicle id="191" depart="248.30">
        <route edges="gneE3 -gneE1"/>
    </vehicle>
    <vehicle id="192" depart="249.60">
        <route edges="gneE1 -gneE2"/>
    </vehicle>
    <vehicle id="193" depart="250.90">
        <route edges="gneE1 -gneE2"/>
    </vehicle>
    <vehicle id="194" depart="252.20">
        <route edges="gneE2 -gneE1"/>
    </vehicle>
    <vehicle id="195" depart="253.50">
        <route edges="gneE2 -gneE1"/>
    </vehicle>
    <vehicle id="196" depart="254.80">
        <route edges="gneE1 -gneE2"/>
    </vehicle>
    <vehicle id="197" depart="256.10">
        <route edges="gneE1 -gneE2"/>
    </vehicle>
    <vehicle id="198" depart="257.40">
        <route edges="gneE2 -gneE1"/>
    </vehicle>
    <vehicle id="199" depart="258.70">
        <route edges="gneE3 -gneE1"/>
    </vehicle>
    <vehicle id="200" depart="260.00">
        <route edges="gneE3 -gneE1"/>
    </vehicle>
    <vehicle id="201" depart="261.30">
        <route edges="gneE1 -gneE2"/>
    </vehicle>
    <vehicle id="202" depart="262.60">
        <route edges="gneE2 -gneE1"/>
    </vehicle>
    <vehicle id="203" depart="263.90">
        <route edges="gneE1 -gneE2"/>
    </vehicle>
    <vehicle id="204" depart="265.20">
        <route edges="gneE1 -gneE2"/>
    </vehicle>
    <vehicle id="205" depart="266.50">
        <route edges="gneE1 -gneE2"/>
    </vehicle>
    <vehicle id="206" depart="267.80">
        <route edges="gneE3 -gneE1"/>
    </vehicle>
    <vehicle id="207" depart="269.10">
        <route edges="gneE3 -gneE1"/>
    </vehicle>
    <vehicle id="208" depart="270.40">
        <route edges="gneE1 -gneE2"/>
    </vehicle>
    <vehicle id="209" depart="271.70">
        <route edges="gneE2 -gneE1"/>
    </vehicle>
    <vehicle id="210" depart="273.00">
        <route edges="gneE3 -gneE1"/>
    </vehicle>
    <vehicle id="211" depart="274.30">
        <route edges="gneE3 -gneE1"/>
    </vehicle>
    <vehicle id="212" depart="275.60">
        <route edges="gneE2 -gneE1"/>
    </vehicle>
    <vehicle id="213" depart="276.90">
        <route edges="gneE3 -gneE1"/>
    </vehicle>
    <vehicle id="214" depart="278.20">
        <route edges="gneE1 -gneE2"/>
    </vehicle>
    <vehicle id="215" depart="279.50">
        <route edges="gneE1 -gneE2"/>
    </vehicle>
    <vehicle id="216" depart="280.80">
        <route edges="gneE2 -gneE1"/>
    </vehicle>
    <vehicle id="217" depart="282.10">
        <route edges="gneE1 -gneE2"/>
    </vehicle>
    <vehicle id="218" depart="283.40">
        <route edges="gneE3 -gneE2"/>
    </vehicle>
    <vehicle id="219" depart="284.70">
        <route edges="gneE3 -gneE2"/>
    </vehicle>
    <vehicle id="220" depart="286.00">
        <route edges="gneE1 -gneE2"/>
    </vehicle>
    <vehicle id="221" depart="287.30">
        <route edges="gneE3 -gneE2"/>
    </vehicle>
    <vehicle id="222" depart="288.60">
        <route edges="gneE3 -gneE2"/>
    </vehicle>
    <vehicle id="223" depart="289.90">
        <route edges="gneE3 -gneE1"/>
    </vehicle>
    <vehicle id="224" depart="291.20">
        <route edges="gneE3 -gneE1"/>
    </vehicle>
    <vehicle id="225" depart="292.50">
        <route edges="gneE2 -gneE1"/>
    </vehicle>
    <vehicle id="226" depart="293.80">
        <route edges="gneE3 -gneE1"/>
    </vehicle>
    <vehicle id="227" depart="295.10">
        <route edges="gneE2 -gneE1"/>
    </vehicle>
    <vehicle id="228" depart="296.40">
        <route edges="gneE3 -gneE2"/>
    </vehicle>
    <vehicle id="229" depart="297.70">
        <route edges="gneE2 -gneE1"/>
    </vehicle>
    <vehicle id="230" depart="299.00">
        <route edges="gneE3 -gneE1"/>
    </vehicle>
    <vehicle id="231" depart="300.30">
        <route edges="gneE2 -gneE1"/>
    </vehicle>
    <vehicle id="232" depart="301.60">
        <route edges="gneE2 -gneE1"/>
    </vehicle>
    <vehicle id="233" depart="302.90">
        <route edges="gneE3 -gneE1"/>
    </vehicle>
    <vehicle id="234" depart="304.20">
        <route edges="gneE3 -gneE2"/>
    </vehicle>
    <vehicle id="235" depart="305.50">
        <route edges="gneE1 -gneE2"/>
    </vehicle>
    <vehicle id="236" depart="306.80">
        <route edges="gneE2 -gneE1"/>
    </vehicle>
    <vehicle id="237" depart="308.10">
        <route edges="gneE3 -gneE2"/>
    </vehicle>
    <vehicle id="238" depart="309.40">
        <route edges="gneE3 -gneE2"/>
    </vehicle>
    <vehicle id="239" depart="310.70">
        <route edges="gneE3 -gneE2"/>
    </vehicle>
    <vehicle id="240" depart="312.00">
        <route edges="gneE2 -gneE1"/>
    </vehicle>
    <vehicle id="241" depart="313.30">
        <route edges="gneE1 -gneE2"/>
    </vehicle>
    <vehicle id="242" depart="314.60">
        <route edges="gneE1 -gneE2"/>
    </vehicle>
    <vehicle id="243" depart="315.90">
        <route edges="gneE3 -gneE2"/>
    </vehicle>
    <vehicle id="244" depart="317.20">
        <route edges="gneE3 -gneE2"/>
    </vehicle>
    <vehicle id="245" depart="318.50">
        <route edges="gneE1 -gneE2"/>
    </vehicle>
    <vehicle id="246" depart="319.80">
        <route edges="gneE3 -gneE2"/>
    </vehicle>
    <vehicle id="247" depart="321.10">
        <route edges="gneE1 -gneE2"/>
    </vehicle>
    <vehicle id="248" depart="322.40">
        <route edges="gneE2 -gneE1"/>
    </vehicle>
    <vehicle id="249" depart="323.70">
        <route edges="gneE3 -gneE1"/>
    </vehicle>
    <vehicle id="250" depart="325.00">
        <route edges="gneE2 -gneE1"/>
    </vehicle>
    <vehicle id="251" depart="326.30">
        <route edges="gneE1 -gneE2"/>
    </vehicle>
    <vehicle id="252" depart="327.60">
        <route edges="gneE3 -gneE1"/>
    </vehicle>
    <vehicle id="253" depart="328.90">
        <route edges="gneE1 -gneE2"/>
    </vehicle>
    <vehicle id="254" depart="330.20">
        <route edges="gneE2 -gneE1"/>
    </vehicle>
    <vehicle id="255" depart="331.50">
        <route edges="gneE2 -gneE1"/>
    </vehicle>
    <vehicle id="256" depart="332.80">
        <route edges="gneE3 -gneE1"/>
    </vehicle>
    <vehicle id="257" depart="334.10">
        <route edges="gneE3 -gneE1"/>
    </vehicle>
    <vehicle id="258" depart="335.40">
        <route edges="gneE2 -gneE1"/>
    </vehicle>
    <vehicle id="259" depart="336.70">
        <route edges="gneE2 -gneE1"/>
    </vehicle>
    <vehicle id="260" depart="338.00">
        <route edges="gneE2 -gneE1"/>
    </vehicle>
    <vehicle id="261" depart="339.30">
        <route edges="gneE3 -gneE2"/>
    </vehicle>
    <vehicle id="262" depart="340.60">
        <route edges="gneE3 -gneE2"/>
    </vehicle>
    <vehicle id="263" depart="341.90">
        <route edges="gneE2 -gneE1"/>
    </vehicle>
    <vehicle id="264" depart="343.20">
        <route edges="gneE3 -gneE1"/>
    </vehicle>
    <vehicle id="265" depart="344.50">
        <route edges="gneE1 -gneE2"/>
    </vehicle>
    <vehicle id="266" depart="345.80">
        <route edges="gneE1 -gneE2"/>
    </vehicle>
    <vehicle id="267" depart="347.10">
        <route edges="gneE3 -gneE2"/>
    </vehicle>
    <vehicle id="268" depart="348.40">
        <route edges="gneE1 -gneE2"/>
    </vehicle>
    <vehicle id="269" depart="349.70">
        <route edges="gneE1 -gneE2"/>
    </vehicle>
    <vehicle id="270" depart="351.00">
        <route edges="gneE3 -gneE1"/>
    </vehicle>
    <vehicle id="271" depart="352.30">
        <route edges="gneE3 -gneE2"/>
    </vehicle>
    <vehicle id="272" depart="353.60">
        <route edges="gneE2 -gneE1"/>
    </vehicle>
    <vehicle id="273" depart="354.90">
        <route edges="gneE2 -gneE1"/>
    </vehicle>
    <vehicle id="274" depart="356.20">
        <route edges="gneE3 -gneE1"/>
    </vehicle>
    <vehicle id="275" depart="357.50">
        <route edges="gneE3 -gneE1"/>
    </vehicle>
    <vehicle id="276" depart="358.80">
        <route edges="gneE2 -gneE1"/>
    </vehicle>
    <vehicle id="277" depart="360.10">
        <route edges="gneE2 -gneE1"/>
    </vehicle>
    <vehicle id="278" depart="361.40">
        <route edges="gneE3 -gneE2"/>
    </vehicle>
    <vehicle id="279" depart="362.70">
        <route edges="gneE3 -gneE2"/>
    </vehicle>
    <vehicle id="280" depart="364.00">
        <route edges="gneE1 -gneE2"/>
    </vehicle>
    <vehicle id="281" depart="365.30">
        <route edges="gneE1 -gneE2"/>
    </vehicle>
    <vehicle id="282" depart="366.60">
        <route edges="gneE2 -gneE1"/>
    </vehicle>
    <vehicle id="283" depart="367.90">
        <route edges="gneE3 -gneE1"/>
    </vehicle>
    <vehicle id="284" depart="369.20">
        <route edges="gneE3 -gneE2"/>
    </vehicle>
    <vehicle id="285" depart="370.50">
        <route edges="gneE3 -gneE2"/>
    </vehicle>
    <vehicle id="286" depart="371.80">
        <route edges="gneE2 -gneE1"/>
    </vehicle>
    <vehicle id="287" depart="373.10">
        <route edges="gneE1 -gneE2"/>
    </vehicle>
    <vehicle id="288" depart="374.40">
        <route edges="gneE3 -gneE2"/>
    </vehicle>
    <vehicle id="289" depart="375.70">
        <route edges="gneE1 -gneE2"/>
    </vehicle>
    <vehicle id="290" depart="377.00">
        <route edges="gneE3 -gneE1"/>
    </vehicle>
    <vehicle id="291" depart="378.30">
        <route edges="gneE1 -gneE2"/>
    </vehicle>
    <vehicle id="292" depart="379.60">
        <route edges="gneE2 -gneE1"/>
    </vehicle>
    <vehicle id="293" depart="380.90">
        <route edges="gneE3 -gneE1"/>
    </vehicle>
    <vehicle id="294" depart="382.20">
        <route edges="gneE3 -gneE1"/>
    </vehicle>
    <vehicle id="295" depart="383.50">
        <route edges="gneE2 -gneE1"/>
    </vehicle>
    <vehicle id="296" depart="384.80">
        <route edges="gneE1 -gneE2"/>
    </vehicle>
    <vehicle id="297" depart="386.10">
        <route edges="gneE2 -gneE1"/>
    </vehicle>
    <vehicle id="298" depart="387.40">
        <route edges="gneE2 -gneE1"/>
    </vehicle>
    <vehicle id="299" depart="388.70">
        <route edges="gneE3 -gneE1"/>
    </vehicle>
    <vehicle id="300" depart="390.00">
        <route edges="gneE2 -gneE1"/>
    </vehicle>
    <vehicle id="301" depart="391.30">
        <route edges="gneE3 -gneE1"/>
    </vehicle>
    <vehicle id="302" depart="392.60">
        <route edges="gneE3 -gneE2"/>
    </vehicle>
    <vehicle id="303" depart="393.90">
        <route edges="gneE1 -gneE2"/>
    </vehicle>
    <vehicle id="304" depart="395.20">
        <route edges="gneE3 -gneE1"/>
    </vehicle>
    <vehicle id="305" depart="396.50">
        <route edges="gneE1 -gneE2"/>
    </vehicle>
    <vehicle id="306" depart="397.80">
        <route edges="gneE1 -gneE2"/>
    </vehicle>
    <vehicle id="307" depart="399.10">
        <route edges="gneE2 -gneE1"/>
    </vehicle>
    <vehicle id="308" depart="400.40">
        <route edges="gneE3 -gneE2"/>
    </vehicle>
    <vehicle id="309" depart="401.70">
        <route edges="gneE3 -gneE2"/>
    </vehicle>
    <vehicle id="310" depart="403.00">
        <route edges="gneE2 -gneE1"/>
    </vehicle>
    <vehicle id="311" depart="404.30">
        <route edges="gneE3 -gneE2"/>
    </vehicle>
    <vehicle id="312" depart="405.60">
        <route edges="gneE3 -gneE1"/>
    </vehicle>
    <vehicle id="313" depart="406.90">
        <route edges="gneE1 -gneE2"/>
    </vehicle>
    <vehicle id="314" depart="408.20">
        <route edges="gneE1 -gneE2"/>
    </vehicle>
    <vehicle id="315" depart="409.50">
        <route edges="gneE3 -gneE1"/>
    </vehicle>
    <vehicle id="316" depart="410.80">
        <route edges="gneE3 -gneE1"/>
    </vehicle>
    <vehicle id="317" depart="412.10">
        <route edges="gneE3 -gneE2"/>