<?xml version="1.0" encoding="UTF-8"?>

<!-- generated on Sun May  6 21:12:22 2018 by SUMO duarouter Version 0.30.0
<?xml version="1.0" encoding="UTF-8"?>

<configuration xmlns:xsi="http://www.w3.org/2001/XMLSchema-instance" xsi:noNamespaceSchemaLocation="http://sumo.dlr.de/xsd/duarouterConfiguration.xsd">

    <input>
        <net-file value="simple_T/simple_T.net.xml"/>
        <route-files value="trips.trips.xml"/>
    </input>

    <output>
        <output-file value="simple_T/route/simple_T-1.1-7.rou.xml"/>
    </output>

    <processing>
        <ignore-errors value="true"/>
    </processing>

    <time>
        <begin value="0.0"/>
        <end value="1000.0"/>
    </time>

    <report>
        <no-warnings value="true"/>
        <no-step-log value="true"/>
    </report>

</configuration>
-->

<routes xmlns:xsi="http://www.w3.org/2001/XMLSchema-instance" xsi:noNamespaceSchemaLocation="http://sumo.dlr.de/xsd/routes_file.xsd">
    <vehicle id="2" depart="2.20">
        <route edges="gneE1 -gneE2"/>
    </vehicle>
    <vehicle id="3" depart="3.30">
        <route edges="gneE3 -gneE1"/>
    </vehicle>
    <vehicle id="4" depart="4.40">
        <route edges="gneE3 -gneE2"/>
    </vehicle>
    <vehicle id="7" depart="7.70">
        <route edges="gneE2 -gneE1"/>
    </vehicle>
    <vehicle id="8" depart="8.80">
        <route edges="gneE3 -gneE1"/>
    </vehicle>
    <vehicle id="9" depart="9.90">
        <route edges="gneE1 -gneE2"/>
    </vehicle>
    <vehicle id="10" depart="11.00">
        <route edges="gneE2 -gneE1"/>
    </vehicle>
    <vehicle id="11" depart="12.10">
        <route edges="gneE3 -gneE1"/>
    </vehicle>
    <vehicle id="12" depart="13.20">
        <route edges="gneE1 -gneE2"/>
    </vehicle>
    <vehicle id="15" depart="16.50">
        <route edges="gneE3 -gneE2"/>
    </vehicle>
    <vehicle id="16" depart="17.60">
        <route edges="gneE2 -gneE1"/>
    </vehicle>
    <vehicle id="18" depart="19.80">
        <route edges="gneE3 -gneE2"/>
    </vehicle>
    <vehicle id="21" depart="23.10">
        <route edges="gneE3 -gneE2"/>
    </vehicle>
    <vehicle id="23" depart="25.30">
        <route edges="gneE2 -gneE1"/>
    </vehicle>
    <vehicle id="28" depart="30.80">
        <route edges="gneE1 -gneE2"/>
    </vehicle>
    <vehicle id="29" depart="31.90">
        <route edges="gneE2 -gneE1"/>
    </vehicle>
    <vehicle id="30" depart="33.00">
        <route edges="gneE3 -gneE2"/>
    </vehicle>
    <vehicle id="31" depart="34.10">
        <route edges="gneE1 -gneE2"/>
    </vehicle>
    <vehicle id="34" depart="37.40">
        <route edges="gneE3 -gneE2"/>
    </vehicle>
    <vehicle id="35" depart="38.50">
        <route edges="gneE2 -gneE1"/>
    </vehicle>
    <vehicle id="37" depart="40.70">
        <route edges="gneE3 -gneE2"/>
    </vehicle>
    <vehicle id="38" depart="41.80">
        <route edges="gneE3 -gneE2"/>
    </vehicle>
    <vehicle id="39" depart="42.90">
        <route edges="gneE3 -gneE2"/>
    </vehicle>
    <vehicle id="40" depart="44.00">
        <route edges="gneE1 -gneE2"/>
    </vehicle>
    <vehicle id="41" depart="45.10">
        <route edges="gneE3 -gneE1"/>
    </vehicle>
    <vehicle id="43" depart="47.30">
        <route edges="gneE3 -gneE2"/>
    </vehicle>
    <vehicle id="44" depart="48.40">
        <route edges="gneE3 -gneE1"/>
    </vehicle>
    <vehicle id="46" depart="50.60">
        <route edges="gneE3 -gneE1"/>
    </vehicle>
    <vehicle id="47" depart="51.70">
        <route edges="gneE1 -gneE2"/>
    </vehicle>
    <vehicle id="48" depart="52.80">
        <route edges="gneE2 -gneE1"/>
    </vehicle>
    <vehicle id="49" depart="53.90">
        <route edges="gneE3 -gneE1"/>
    </vehicle>
    <vehicle id="50" depart="55.00">
        <route edges="gneE3 -gneE1"/>
    </vehicle>
    <vehicle id="51" depart="56.10">
        <route edges="gneE2 -gneE1"/>
    </vehicle>
    <vehicle id="52" depart="57.20">
        <route edges="gneE2 -gneE1"/>
    </vehicle>
    <vehicle id="53" depart="58.30">
        <route edges="gneE1 -gneE2"/>
    </vehicle>
    <vehicle id="54" depart="59.40">
        <route edges="gneE3 -gneE2"/>
    </vehicle>
    <vehicle id="55" depart="60.50">
        <route edges="gneE1 -gneE2"/>
    </vehicle>
    <vehicle id="57" depart="62.70">
        <route edges="gneE3 -gneE1"/>
    </vehicle>
    <vehicle id="58" depart="63.80">
        <route edges="gneE1 -gneE2"/>
    </vehicle>
    <vehicle id="59" depart="64.90">
        <route edges="gneE3 -gneE2"/>
    </vehicle>
    <vehicle id="60" depart="66.00">
        <route edges="gneE2 -gneE1"/>
    </vehicle>
    <vehicle id="61" depart="67.10">
        <route edges="gneE3 -gneE1"/>
    </vehicle>
    <vehicle id="62" depart="68.20">
        <route edges="gneE3 -gneE2"/>
    </vehicle>
    <vehicle id="64" depart="70.40">
        <route edges="gneE1 -gneE2"/>
    </vehicle>
    <vehicle id="65" depart="71.50">
        <route edges="gneE2 -gneE1"/>
    </vehicle>
    <vehicle id="67" depart="73.70">
        <route edges="gneE3 -gneE1"/>
    </vehicle>
    <vehicle id="69" depart="75.90">
        <route edges="gneE3 -gneE2"/>
    </vehicle>
    <vehicle id="71" depart="78.10">
        <route edges="gneE2 -gneE1"/>
    </vehicle>
    <vehicle id="74" depart="81.40">
        <route edges="gneE1 -gneE2"/>
    </vehicle>
    <vehicle id="75" depart="82.50">
        <route edges="gneE1 -gneE2"/>
    </vehicle>
    <vehicle id="76" depart="83.60">
        <route edges="gneE2 -gneE1"/>
    </vehicle>
    <vehicle id="77" depart="84.70">
        <route edges="gneE1 -gneE2"/>
    </vehicle>
    <vehicle id="80" depart="88.00">
        <route edges="gneE3 -gneE2"/>
    </vehicle>
    <vehicle id="81" depart="89.10">
        <route edges="gneE3 -gneE2"/>
    </vehicle>
    <vehicle id="82" depart="90.20">
        <route edges="gneE3 -gneE2"/>
    </vehicle>
    <vehicle id="84" depart="92.40">
        <route edges="gneE3 -gneE1"/>
    </vehicle>
    <vehicle id="85" depart="93.50">
        <route edges="gneE1 -gneE2"/>
    </vehicle>
    <vehicle id="86" depart="94.60">
        <route edges="gneE3 -gneE1"/>
    </vehicle>
    <vehicle id="89" depart="97.90">
        <route edges="gneE3 -gneE2"/>
    </vehicle>
    <vehicle id="92" depart="101.20">
        <route edges="gneE2 -gneE1"/>
    </vehicle>
    <vehicle id="94" depart="103.40">
        <route edges="gneE1 -gneE2"/>
    </vehicle>
    <vehicle id="95" depart="104.50">
        <route edges="gneE2 -gneE1"/>
    </vehicle>
    <vehicle id="96" depart="105.60">
        <route edges="gneE3 -gneE1"/>
    </vehicle>
    <vehicle id="98" depart="107.80">
        <route edges="gneE1 -gneE2"/>
    </vehicle>
    <vehicle id="100" depart="110.00">
        <route edges="gneE2 -gneE1"/>
    </vehicle>
    <vehicle id="102" depart="112.20">
        <route edges="gneE3 -gneE1"/>
    </vehicle>
    <vehicle id="103" depart="113.30">
        <route edges="gneE3 -gneE2"/>
    </vehicle>
    <vehicle id="106" depart="116.60">
        <route edges="gneE2 -gneE1"/>
    </vehicle>
    <vehicle id="107" depart="117.70">
        <route edges="gneE3 -gneE2"/>
    </vehicle>
    <vehicle id="110" depart="121.00">
        <route edges="gneE2 -gneE1"/>
    </vehicle>
    <vehicle id="111" depart="122.10">
        <route edges="gneE3 -gneE2"/>
    </vehicle>
    <vehicle id="114" depart="125.40">
        <route edges="gneE3 -gneE2"/>
    </vehicle>
    <vehicle id="115" depart="126.50">
        <route edges="gneE3 -gneE1"/>
    </vehicle>
    <vehicle id="117" depart="128.70">
        <route edges="gneE1 -gneE2"/>
    </vehicle>
    <vehicle id="118" depart="129.80">
        <route edges="gneE2 -gneE1"/>
    </vehicle>
    <vehicle id="119" depart="130.90">
        <route edges="gneE3 -gneE1"/>
    </vehicle>
    <vehicle id="121" depart="133.10">
        <route edges="gneE1 -gneE2"/>
    </vehicle>
    <vehicle id="123" depart="135.30">
        <route edges="gneE3 -gneE2"/>
    </vehicle>
    <vehicle id="125" depart="137.50">
        <route edges="gneE3 -gneE1"/>
    </vehicle>
    <vehicle id="126" depart="138.60">
        <route edges="gneE3 -gneE1"/>
    </vehicle>
    <vehicle id="127" depart="139.70">
        <route edges="gneE3 -gneE2"/>
    </vehicle>
    <vehicle id="128" depart="140.80">
        <route edges="gneE2 -gneE1"/>
    </vehicle>
    <vehicle id="132" depart="145.20">
        <route edges="gneE3 -gneE2"/>
    </vehicle>
    <vehicle id="133" depart="146.30">
        <route edges="gneE1 -gneE2"/>
    </vehicle>
    <vehicle id="134" depart="147.40">
        <route edges="gneE3 -gneE2"/>
    </vehicle>
    <vehicle id="135" depart="148.50">
        <route edges="gneE1 -gneE2"/>
    </vehicle>
    <vehicle id="136" depart="149.60">
        <route edges="gneE3 -gneE2"/>
    </vehicle>
    <vehicle id="138" depart="151.80">
        <route edges="gneE3 -gneE2"/>
    </vehicle>
    <vehicle id="139" depart="152.90">
        <route edges="gneE1 -gneE2"/>
    </vehicle>
    <vehicle id="140" depart="154.00">
        <route edges="gneE3 -gneE2"/>
    </vehicle>
    <vehicle id="141" depart="155.10">
        <route edges="gneE2 -gneE1"/>
    </vehicle>
    <vehicle id="142" depart="156.20">
        <route edges="gneE2 -gneE1"/>
    </vehicle>
    <vehicle id="143" depart="157.30">
        <route edges="gneE3 -gneE1"/>
    </vehicle>
    <vehicle id="145" depart="159.50">
        <route edges="gneE3 -gneE2"/>
    </vehicle>
    <vehicle id="146" depart="160.60">
        <route edges="gneE3 -gneE1"/>
    </vehicle>
    <vehicle id="147" depart="161.70">
        <route edges="gneE3 -gneE1"/>
    </vehicle>
    <vehicle id="148" depart="162.80">
        <route edges="gneE1 -gneE2"/>
    </vehicle>
    <vehicle id="149" depart="163.90">
        <route edges="gneE3 -gneE2"/>
    </vehicle>
    <vehicle id="150" depart="165.00">
        <route edges="gneE3 -gneE2"/>
    </vehicle>
    <vehicle id="151" depart="166.10">
        <route edges="gneE3 -gneE1"/>
    </vehicle>
    <vehicle id="153" depart="168.30">
        <route edges="gneE1 -gneE2"/>
    </vehicle>
    <vehicle id="155" depart="170.50">
        <route edges="gneE3 -gneE1"/>
    </vehicle>
    <vehicle id="156" depart="171.60">
        <route edges="gneE3 -gneE2"/>
    </vehicle>
    <vehicle id="157" depart="172.70">
        <route edges="gneE1 -gneE2"/>
    </vehicle>
    <vehicle id="158" depart="173.80">
        <route edges="gneE1 -gneE2"/>
    </vehicle>
    <vehicle id="159" depart="174.90">
        <route edges="gneE3 -gneE1"/>
    </vehicle>
    <vehicle id="160" depart="176.00">
        <route edges="gneE1 -gneE2"/>
    </vehicle>
    <vehicle id="161" depart="177.10">
        <route edges="gneE2 -gneE1"/>
    </vehicle>
    <vehicle id="163" depart="179.30">
        <route edges="gneE1 -gneE2"/>
    </vehicle>
    <vehicle id="164" depart="180.40">
        <route edges="gneE3 -gneE2"/>
    </vehicle>
    <vehicle id="166" depart="182.60">
        <route edges="gneE1 -gneE2"/>
    </vehicle>
    <vehicle id="167" depart="183.70">
        <route edges="gneE2 -gneE1"/>
    </vehicle>
    <vehicle id="169" depart="185.90">
        <route edges="gneE3 -gneE2"/>
    </vehicle>
    <vehicle id="170" depart="187.00">
        <route edges="gneE3 -gneE2"/>
    </vehicle>
    <vehicle id="171" depart="188.10">
        <route edges="gneE1 -gneE2"/>
    </vehicle>
    <vehicle id="172" depart="189.20">
        <route edges="gneE3 -gneE1"/>
    </vehicle>
    <vehicle id="173" depart="190.30">
        <route edges="gneE2 -gneE1"/>
    </vehicle>
    <vehicle id="175" depart="192.50">
        <route edges="gneE2 -gneE1"/>
    </vehicle>
    <vehicle id="177" depart="194.70">
        <route edges="gneE1 -gneE2"/>
    </vehicle>
    <vehicle id="179" depart="196.90">
        <route edges="gneE3 -gneE1"/>
    </vehicle>
    <vehicle id="181" depart="199.10">
        <route edges="gneE3 -gneE1"/>
    </vehicle>
    <vehicle id="182" depart="200.20">
        <route edges="gneE1 -gneE2"/>
    </vehicle>
    <vehicle id="183" depart="201.30">
        <route edges="gneE3 -gneE1"/>
    </vehicle>
    <vehicle id="186" depart="204.60">
        <route edges="gneE2 -gneE1"/>
    </vehicle>
    <vehicle id="187" depart="205.70">
        <route edges="gneE1 -gneE2"/>
    </vehicle>
    <vehicle id="188" depart="206.80">
        <route edges="gneE2 -gneE1"/>
    </vehicle>
    <vehicle id="189" depart="207.90">
        <route edges="gneE2 -gneE1"/>
    </vehicle>
    <vehicle id="191" depart="210.10">
        <route edges="gneE3 -gneE1"/>
    </vehicle>
    <vehicle id="195" depart="214.50">
        <route edges="gneE3 -gneE2"/>
    </vehicle>
    <vehicle id="199" depart="218.90">
        <route edges="gneE3 -gneE2"/>
    </vehicle>
    <vehicle id="200" depart="220.00">
        <route edges="gneE2 -gneE1"/>
    </vehicle>
    <vehicle id="202" depart="222.20">
        <route edges="gneE1 -gneE2"/>
    </vehicle>
    <vehicle id="205" depart="225.50">
        <route edges="gneE3 -gneE2"/>
    </vehicle>
    <vehicle id="206" depart="226.60">
        <route edges="gneE3 -gneE1"/>
    </vehicle>
    <vehicle id="207" depart="227.70">
        <route edges="gneE2 -gneE1"/>
    </vehicle>
    <vehicle id="208" depart="228.80">
        <route edges="gneE1 -gneE2"/>
    </vehicle>
    <vehicle id="209" depart="229.90">
        <route edges="gneE1 -gneE2"/>
    </vehicle>
    <vehicle id="211" depart="232.10">
        <route edges="gneE3 -gneE1"/>
    </vehicle>
    <vehicle id="212" depart="233.20">
        <route edges="gneE2 -gneE1"/>
    </vehicle>
    <vehicle id="214" depart="235.40">
        <route edges="gneE1 -gneE2"/>
    </vehicle>
    <vehicle id="217" depart="238.70">
        <route edges="gneE2 -gneE1"/>
    </vehicle>
    <vehicle id="218" depart="239.80">
        <route edges="gneE3 -gneE1"/>
    </vehicle>
    <vehicle id="219" depart="240.90">
        <route edges="gneE2 -gneE1"/>
    </vehicle>
    <vehicle id="220" depart="242.00">
        <route edges="gneE3 -gneE2"/>
    </vehicle>
    <vehicle id="221" depart="243.10">
        <route edges="gneE3 -gneE1"/>
    </vehicle>
    <vehicle id="223" depart="245.30">
        <route edges="gneE1 -gneE2"/>
    </vehicle>
    <vehicle id="224" depart="246.40">
        <route edges="gneE2 -gneE1"/>
    </vehicle>
    <vehicle id="225" depart="247.50">
        <route edges="gneE3 -gneE2"/>
    </vehicle>
    <vehicle id="227" depart="249.70">
        <route edges="gneE3 -gneE2"/>
    </vehicle>
    <vehicle id="235" depart="258.50">
        <route edges="gneE2 -gneE1"/>
    </vehicle>
    <vehicle id="236" depart="259.60">
        <route edges="gneE3 -gneE1"/>
    </vehicle>
    <vehicle id="237" depart="260.70">
        <route edges="gneE3 -gneE2"/>
    </vehicle>
    <vehicle id="238" depart="261.80">
        <route edges="gneE2 -gneE1"/>
    </vehicle>
    <vehicle id="239" depart="262.90">
        <route edges="gneE3 -gneE2"/>
    </vehicle>
    <vehicle id="240" depart="264.00">
        <route edges="gneE2 -gneE1"/>
    </vehicle>
    <vehicle id="242" depart="266.20">
        <route edges="gneE3 -gneE2"/>
    </vehicle>
    <vehicle id="244" depart="268.40">
        <route edges="gneE1 -gneE2"/>
    </vehicle>
    <vehicle id="246" depart="270.60">
        <route edges="gneE3 -gneE2"/>
    </vehicle>
    <vehicle id="247" depart="271.70">
        <route edges="gneE3 -gneE1"/>
    </vehicle>
    <vehicle id="248" depart="272.80">
        <route edges="gneE2 -gneE1"/>
    </vehicle>
    <vehicle id="249" depart="273.90">
        <route edges="gneE3 -gneE1"/>
    </vehicle>
    <vehicle id="250" depart="275.00">
        <route edges="gneE2 -gneE1"/>
    </vehicle>
    <vehicle id="251" depart="276.10">
        <route edges="gneE1 -gneE2"/>
    </vehicle>
    <vehicle id="253" depart="278.30">
        <route edges="gneE3 -gneE1"/>
    </vehicle>
    <vehicle id="255" depart="280.50">
        <route edges="gneE3 -gneE2"/>
    </vehicle>
    <vehicle id="258" depart="283.80">
        <route edges="gneE1 -gneE2"/>
    </vehicle>
    <vehicle id="259" depart="284.90">
        <route edges="gneE1 -gneE2"/>
    </vehicle>
    <vehicle id="261" depart="287.10">
        <route edges="gneE2 -gneE1"/>
    </vehicle>
    <vehicle id="262" depart="288.20">
        <route edges="gneE2 -gneE1"/>
    </vehicle>
    <vehicle id="263" depart="289.30">
        <route edges="gneE3 -gneE2"/>
    </vehicle>
    <vehicle id="264" depart="290.40">
        <route edges="gneE3 -gneE2"/>
    </vehicle>
    <vehicle id="266" depart="292.60">
        <route edges="gneE2 -gneE1"/>
    </vehicle>
    <vehicle id="267" depart="293.70">
        <route edges="gneE2 -gneE1"/>
    </vehicle>
    <vehicle id="270" depart="297.00">
        <route edges="gneE3 -gneE1"/>
    </vehicle>
    <vehicle id="271" depart="298.10">
        <route edges="gneE3 -gneE1"/>
    </vehicle>
    <vehicle id="272" depart="299.20">
        <route edges="gneE2 -gneE1"/>
    </vehicle>
    <vehicle id="273" depart="300.30">
        <route edges="gneE1 -gneE2"/>
    </vehicle>
    <vehicle id="275" depart="302.50">
        <route edges="gneE1 -gneE2"/>
    </vehicle>
    <vehicle id="279" depart="306.90">
        <route edges="gneE3 -gneE1"/>
    </vehicle>
    <vehicle id="280" depart="308.00">
        <route edges="gneE3 -gneE1"/>
    </vehicle>
    <vehicle id="281" depart="309.10">
        <route edges="gneE3 -gneE2"/>
    </vehicle>
    <vehicle id="283" depart="311.30">
        <route edges="gneE3 -gneE2"/>
    </vehicle>
    <vehicle id="284" depart="312.40">
        <route edges="gneE3 -gneE2"/>
    </vehicle>
    <vehicle id="285" depart="313.50">
        <route edges="gneE3 -gneE2"/>
    </vehicle>
    <vehicle id="286" depart="314.60">
        <route edges="gneE3 -gneE1"/>
    </vehicle>
    <vehicle id="287" depart="315.70">
        <route edges="gneE2 -gneE1"/>
    </vehicle>
    <vehicle id="290" depart="319.00">
        <route edges="gneE3 -gneE1"/>
    </vehicle>
    <vehicle id="291" depart="320.10">
        <route edges="gneE3 -gneE1"/>
    </vehicle>
    <vehicle id="293" depart="322.30">
        <route edges="gneE2 -gneE1"/>
    </vehicle>
    <vehicle id="296" depart="325.60">
        <route edges="gneE3 -gneE1"/>
    </vehicle>
    <vehicle id="297" depart="326.70">
        <route edges="gneE3 -gneE1"/>
    </vehicle>
    <vehicle id="298" depart="327.80">
        <route edges="gneE1 -gneE2"/>
    </vehicle>
    <vehicle id="299" depart="328.90">
        <route edges="gneE1 -gneE2"/>
    </vehicle>
    <vehicle id="300" depart="330.00">
        <route edges="gneE2 -gneE1"/>
    </vehicle>
    <vehicle id="302" depart="332.20">
        <route edges="gneE3 -gneE2"/>
    </vehicle>
    <vehicle id="303" depart="333.30">
        <route edges="gneE2 -gneE1"/>
    </vehicle>
    <vehicle id="304" depart="334.40">
        <route edges="gneE3 -gneE1"/>
    </vehicle>
    <vehicle id="305" depart="335.50">
        <route edges="gneE2 -gneE1"/>
    </vehicle>
    <vehicle id="307" depart="337.70">
        <route edges="gneE3 -gneE2"/>
    </vehicle>
    <vehicle id="309" depart="339.90">
        <route edges="gneE2 -gneE1"/>
    </vehicle>
    <vehicle id="310" depart="341.00">
        <route edges="gneE1 -gneE2"/>
    </vehicle>
    <vehicle id="311" depart="342.10">
        <route edges="gneE1 -gneE2"/>
    </vehicle>
    <vehicle id="312" depart="343.20">
        <route edges="gneE3 -gneE1"/>
    </vehicle>
    <vehicle id="313" depart="344.30">
        <route edges="gneE1 -gneE2"/>
    </vehicle>
    <vehicle id="314" depart="345.40">
        <route edges="gneE3 -gneE2"/>
    </vehicle>
    <vehicle id="315" depart="346.50">
        <route edges="gneE2 -gneE1"/>
    </vehicle>
    <vehicle id="316" depart="347.60">
        <route edges="gneE2 -gneE1"/>
    </vehicle>
    <vehicle id="319" depart="350.90">
        <route edges="gneE1 -gneE2"/>
    </vehicle>
    <vehicle id="322" depart="354.20">
        <route edges="gneE3 -gneE2"/>
    </vehicle>
    <vehicle id="324" depart="356.40">
        <route edges="gneE2 -gneE1"/>
    </vehicle>
    <vehicle id="327" depart="359.70">
        <route edges="gneE3 -gneE2"/>
    </vehicle>
    <vehicle id="331" depart="364.10">
        <route edges="gneE3 -gneE1"/>
    </vehicle>
    <vehicle id="334" depart="367.40">
        <route edges="gneE3 -gneE2"/>
    </vehicle>
    <vehicle id="335" depart="368.50">
        <route edges="gneE1 -gneE2"/>
    </vehicle>
    <vehicle id="336" depart="369.60">
        <route edges="gneE3 -gneE2"/>
    </vehicle>
    <vehicle id="338" depart="371.80">
        <route edges="gneE3 -gneE2"/>
    </vehicle>
    <vehicle id="339" depart="372.90">
        <route edges="gneE3 -gneE2"/>
    </vehicle>
    <vehicle id="340" depart="374.00">
        <route edges="gneE1 -gneE2"/>
    </vehicle>
    <vehicle id="344" depart="378.40">
        <route edges="gneE3 -gneE2"/>
    </vehicle>
    <vehicle id="346" depart="380.60">
        <route edges="gneE3 -gneE1"/>
    </vehicle>
    <vehicle id="347" depart="381.70">
        <route edges="gneE3 -gneE1"/>
    </vehicle>
    <vehicle id="348" depart="382.80">
        <route edges="gneE3 -gneE2"/>
    </vehicle>
    <vehicle id="349" depart="383.90">
        <route edges="gneE1 -gneE2"/>
    </vehicle>
    <vehicle id="351" depart="386.10">
        <route edges="gneE1 -gneE2"/>
    </vehicle>
    <vehicle id="352" depart="387.20">
        <route edges="gneE1 -gneE2"/>
    </vehicle>
    <vehicle id="356" depart="391.60">
        <route edges="gneE3 -gneE1"/>
    </vehicle>
    <vehicle id="357" depart="392.70">
        <route edges="gneE2 -gneE1"/>
    </vehicle>
    <vehicle id="359" depart="394.90">
        <route edges="gneE3 -gneE2"/>
    </vehicle>
    <vehicle id="360" depart="396.00">
        <route edges="gneE1 -gneE2"/>
    </vehicle>
    <vehicle id="364" depart="400.40">
        <route edges="gneE3 -gneE1"/>
    </vehicle>
    <vehicle id="365" depart="401.50">
        <route edges="gneE2 -gneE1"/>
    </vehicle>
    <vehicle id="368" depart="404.80">
        <route edges="gneE3 -gneE2"/>
    </vehicle>
    <vehicle id="370" depart="407.00">
        <route edges="gneE1 -gneE2"/>
    </vehicle>
    <vehicle id="373" depart="410.30">
        <route edges="gneE3 -gneE2"/>
    </vehicle>
    <vehicle id="374" depart="411.40">
        <route edges="gneE3 -gneE1"/>
    </vehicle>
    <vehicle id="376" depart="413.60">
        <route edges="gneE1 -gneE2"/>
    </vehicle>
    <vehicle id="377" depart="414.70">
        <route edges="gneE3 -gneE2"/>
    </vehicle>
    <vehicle id="378" depart="415.80">
        <route edges="gneE3 -gneE2"/>
    </vehicle>
    <vehicle id="379" depart="416.90">
        <route edges="gneE2 -gneE1"/>
    </vehicle>
    <vehicle id="382" depart="420.20">
        <route edges="gneE1 -gneE2"/>
    </vehicle>
    <vehicle id="383" depart="421.30">
        <route edges="gneE3 -gneE2"/>
    </vehicle>
    <vehicle id="384" depart="422.40">
        <route edges="gneE3 -gneE2"/>
    </vehicle>
    <vehicle id="385" depart="423.50">
        <route edges="gneE3 -gneE2"/>
    </vehicle>
    <vehicle id="386" depart="424.60">
        <route edges="gneE3 -gneE2"/>
    </vehicle>
    <vehicle id="387" depart="425.70">
        <route edges="gneE3 -gneE1"/>
    </vehicle>
    <vehicle id="388" depart="426.80">
        <route edges="gneE1 -gneE2"/>
    </vehicle>
    <vehicle id="390" depart="429.00">
        <route edges="gneE2 -gneE1"/>
    </vehicle>
    <vehicle id="391" depart="430.10">
        <route edges="gneE3 -gneE2"/>
    </vehicle>
    <vehicle id="392" depart="431.20">
        <route edges="gneE3 -gneE1"/>
    </vehicle>
    <vehicle id="394" depart="433.40">
        <route edges="gneE3 -gneE2"/>
    </vehicle>
    <vehicle id="396" depart="435.60">
        <route edges="gneE1 -gneE2"/>
    </vehicle>
    <vehicle id="397" depart="436.70">
        <route edges="gneE3 -gneE1"/>
    </vehicle>
    <vehicle id="398" depart="437.80">
        <route edges="gneE1 -gneE2"/>
    </vehicle>
    <vehicle id="399" depart="438.90">
        <route edges="gneE3 -gneE2"/>
    </vehicle>
    <vehicle id="401" depart="441.10">
        <route edges="gneE1 -gneE2"/>
    </vehicle>
    <vehicle id="402" depart="442.20">
        <route edges="gneE3 -gneE2"/>
    </vehicle>
    <vehicle id="403" depart="443.30">
        <route edges="gneE2 -gneE1"/>
    </vehicle>
    <vehicle id="404" depart="444.40">
        <route edges="gneE1 -gneE2"/>
    </vehicle>
    <vehicle id="405" depart="445.50">
        <route edges="gneE2 -gneE1"/>
    </vehicle>
    <vehicle id="406" depart="446.60">
        <route edges="gneE1 -gneE2"/>
    </vehicle>
    <vehicle id="408" depart="448.80">
        <route edges="gneE3 -gneE1"/>
    </vehicle>
    <vehicle id="409" depart="449.90">
        <route edges="gneE1 -gneE2"/>
    </vehicle>
    <vehicle id="410" depart="451.00">
        <route edges="gneE3 -gneE2"/>
    </vehicle>
    <vehicle id="411" depart="452.10">
        <route edges="gneE3 -gneE1"/>
    </vehicle>
    <vehicle id="416" depart="457.60">
        <route edges="gneE1 -gneE2"/>
    </vehicle>
    <vehicle id="417" depart="458.70">
        <route edges="gneE3 -gneE2"/>
    </vehicle>
    <vehicle id="420" depart="462.00">
        <route edges="gneE3 -gneE1"/>
    </vehicle>
    <vehicle id="421" depart="463.10">
        <route edges="gneE1 -gneE2"/>
    </vehicle>
    <vehicle id="423" depart="465.30">
        <route edges="gneE3 -gneE1"/>
    </vehicle>
    <vehicle id="426" depart="468.60">
        <route edges="gneE3 -gneE2"/>
    </vehicle>
    <vehicle id="427" depart="469.70">
        <route edges="gneE2 -gneE1"/>
    </vehicle>
    <vehicle id="428" depart="470.80">
        <route edges="gneE3 -gneE2"/>
    </vehicle>
    <vehicle id="429" depart="471.90">
        <route edges="gneE2 -gneE1"/>
    </vehicle>
    <vehicle id="430" depart="473.00">
        <route edges="gneE1 -gneE2"/>
    </vehicle>
    <vehicle id="431" depart="474.10">
        <route edges="gneE1 -gneE2"/>
    </vehicle>
    <vehicle id="432" depart="475.20">
        <route edges="gneE1 -gneE2"/>
    </vehicle>
    <vehicle id="433" depart="476.30">
        <route edges="gneE1 -gneE2"/>
    </vehicle>
    <vehicle id="434" depart="477.40">
        <route edges="gneE2 -gneE1"/>
    </vehicle>
    <vehicle id="435" depart="478.50">
        <route edges="gneE1 -gneE2"/>
    </vehicle>
    <vehicle id="436" depart="479.60">
        <route edges="gneE3 -gneE2"/>
    </vehicle>
    <vehicle id="439" depart="482.90">
        <route edges="gneE3 -gneE1"/>
    </vehicle>
    <vehicle id="440" depart="484.00">
        <route edges="gneE2 -gneE1"/>
    </vehicle>
    <vehicle id="442" depart="486.20">
        <route edges="gneE2 -gneE1"/>
    </vehicle>
    <vehicle id="443" depart="487.30">
        <route edges="gneE3 -gneE1"/>
    </vehicle>
    <vehicle id="444" depart="488.40">
        <route edges="gneE3 -gneE2"/>
    </vehicle>
    <vehicle id="447" depart="491.70">
        <route edges="gneE1 -gneE2"/>
    </vehicle>
    <vehicle id="448" depart="492.80">
        <route edges="gneE3 -gneE1"/>
    </vehicle>
    <vehicle id="449" depart="493.90">
        <route edges="gneE1 -gneE2"/>
    </vehicle>
    <vehicle id="453" depart="498.30">
        <route edges="gneE2 -gneE1"/>
    </vehicle>
    <vehicle id="454" depart="499.40">
        <route edges="gneE3 -gneE1"/>
    </vehicle>
    <vehicle id="457" depart="502.70">
        <route edges="gneE1 -gneE2"/>
    </vehicle>
    <vehicle id="458" depart="503.80">
        <route edges="gneE3 -gneE1"/>
    </vehicle>
    <vehicle id="459" depart="504.90">
        <route edges="gneE1 -gneE2"/>
    </vehicle>
    <vehicle id="460" depart="506.00">
        <route edges="gneE3 -gneE1"/>
    </vehicle>
    <vehicle id="461" depart="507.10">
        <route edges="gneE3 -gneE1"/>
    </vehicle>
    <vehicle id="462" depart="508.20">
        <route edges="gneE1 -gneE2"/>
    </vehicle>
    <vehicle id="463" depart="509.30">
        <route edges="gneE3 -gneE2"/>
    </vehicle>
    <vehicle id="464" depart="510.40">
        <route edges="gneE1 -gneE2"/>
    </vehicle>
    <vehicle id="465" depart="511.50">
        <route edges="gneE3 -gneE2"/>
    </vehicle>
    <vehicle id="466" depart="512.60">
        <route edges="gneE3 -gneE1"/>
    </vehicle>
    <vehicle id="468" depart="514.80">
        <route edges="gneE2 -gneE1"/>
    </vehicle>
    <vehicle id="469" depart="515.90">
        <route edges="gneE2 -gneE1"/>
    </vehicle>
    <vehicle id="470" depart="517.00">
        <route edges="gneE2 -gneE1"/>
    </vehicle>
    <vehicle id="471" depart="518.10">
        <route edges="gneE3 -gneE1"/>
    </vehicle>
    <vehicle id="472" depart="519.20">
        <route edges="gneE3 -gneE1"/>
    </vehicle>
    <vehicle id="474" depart="521.40">
        <route edges="gneE3 -gneE2"/>
    </vehicle>
    <vehicle id="475" depart="522.50">
        <route edges="gneE1 -gneE2"/>
    </vehicle>
    <vehicle id="476" depart="523.60">
        <route edges="gneE1 -gneE2"/>
    </vehicle>
    <vehicle id="477" depart="524.70">
        <route edges="gneE1 -gneE2"/>
    </vehicle>
    <vehicle id="478" depart="525.80">
        <route edges="gneE3 -gneE2"/>
    </vehicle>
    <vehicle id="480" depart="528.00">
        <route edges="gneE3 -gneE2"/>
    </vehicle>
    <vehicle id="482" depart="530.20">
        <route edges="gneE3 -gneE2"/>
    </vehicle>
    <vehicle id="483" depart="531.30">
        <route edges="gneE1 -gneE2"/>
    </vehicle>
    <vehicle id="484" depart="532.40">
        <route edges="gneE1 -gneE2"/>
    </vehicle>
    <vehicle id="485" depart="533.50">
        <route edges="gneE1 -gneE2"/>
    </vehicle>
    <vehicle id="487" depart="535.70">
        <route edges="gneE2 -gneE1"/>
    </vehicle>
    <vehicle id="488" depart="536.80">
        <route edges="gneE1 -gneE2"/>
    </vehicle>