<?xml version="1.0" encoding="UTF-8"?>

<!-- generated on Sun Sep 23 22:09:00 2018 by SUMO duarouter Version 0.30.0
<?xml version="1.0" encoding="UTF-8"?>

<configuration xmlns:xsi="http://www.w3.org/2001/XMLSchema-instance" xsi:noNamespaceSchemaLocation="http://sumo.dlr.de/xsd/duarouterConfiguration.xsd">

    <input>
        <net-file value="simple_T/simple_T.net.xml"/>
        <route-files value="trips.trips.xml"/>
    </input>

    <output>
        <output-file value="simple_T/route/simple_T-1.4-9.rou.xml"/>
    </output>

    <processing>
        <ignore-errors value="true"/>
    </processing>

    <time>
        <begin value="0.0"/>
        <end value="10800.0"/>
    </time>

    <report>
        <no-warnings value="true"/>
        <no-step-log value="true"/>
    </report>

</configuration>
-->

<routes xmlns:xsi="http://www.w3.org/2001/XMLSchema-instance" xsi:noNamespaceSchemaLocation="http://sumo.dlr.de/xsd/routes_file.xsd">
    <vehicle id="0" depart="0.00">
        <route edges="gneE1 -gneE2"/>
    </vehicle>
    <vehicle id="1" depart="1.40">
        <route edges="gneE3 -gneE1"/>
    </vehicle>
    <vehicle id="2" depart="2.80">
        <route edges="gneE2 -gneE1"/>
    </vehicle>
    <vehicle id="3" depart="4.20">
        <route edges="gneE1 -gneE2"/>
    </vehicle>
    <vehicle id="4" depart="5.60">
        <route edges="gneE2 -gneE1"/>
    </vehicle>
    <vehicle id="5" depart="7.00">
        <route edges="gneE2 -gneE1"/>
    </vehicle>
    <vehicle id="6" depart="8.40">
        <route edges="gneE3 -gneE2"/>
    </vehicle>
    <vehicle id="7" depart="9.80">
        <route edges="gneE3 -gneE2"/>
    </vehicle>
    <vehicle id="8" depart="11.20">
        <route edges="gneE2 -gneE1"/>
    </vehicle>
    <vehicle id="9" depart="12.60">
        <route edges="gneE1 -gneE2"/>
    </vehicle>
    <vehicle id="10" depart="14.00">
        <route edges="gneE3 -gneE2"/>
    </vehicle>
    <vehicle id="11" depart="15.40">
        <route edges="gneE3 -gneE1"/>
    </vehicle>
    <vehicle id="12" depart="16.80">
        <route edges="gneE1 -gneE2"/>
    </vehicle>
    <vehicle id="13" depart="18.20">
        <route edges="gneE2 -gneE1"/>
    </vehicle>
    <vehicle id="14" depart="19.60">
        <route edges="gneE1 -gneE2"/>
    </vehicle>
    <vehicle id="15" depart="21.00">
        <route edges="gneE1 -gneE2"/>
    </vehicle>
    <vehicle id="16" depart="22.40">
        <route edges="gneE2 -gneE1"/>
    </vehicle>
    <vehicle id="17" depart="23.80">
        <route edges="gneE3 -gneE1"/>
    </vehicle>
    <vehicle id="18" depart="25.20">
        <route edges="gneE2 -gneE1"/>
    </vehicle>
    <vehicle id="19" depart="26.60">
        <route edges="gneE2 -gneE1"/>
    </vehicle>
    <vehicle id="20" depart="28.00">
        <route edges="gneE1 -gneE2"/>
    </vehicle>
    <vehicle id="21" depart="29.40">
        <route edges="gneE1 -gneE2"/>
    </vehicle>
    <vehicle id="22" depart="30.80">
        <route edges="gneE3 -gneE1"/>
    </vehicle>
    <vehicle id="23" depart="32.20">
        <route edges="gneE2 -gneE1"/>
    </vehicle>
    <vehicle id="24" depart="33.60">
        <route edges="gneE3 -gneE1"/>
    </vehicle>
    <vehicle id="25" depart="35.00">
        <route edges="gneE3 -gneE1"/>
    </vehicle>
    <vehicle id="26" depart="36.40">
        <route edges="gneE1 -gneE2"/>
    </vehicle>
    <vehicle id="27" depart="37.80">
        <route edges="gneE1 -gneE2"/>
    </vehicle>
    <vehicle id="28" depart="39.20">
        <route edges="gneE2 -gneE1"/>
    </vehicle>
    <vehicle id="29" depart="40.60">
        <route edges="gneE2 -gneE1"/>
    </vehicle>
    <vehicle id="30" depart="42.00">
        <route edges="gneE3 -gneE1"/>
    </vehicle>
    <vehicle id="31" depart="43.40">
        <route edges="gneE1 -gneE2"/>
    </vehicle>
    <vehicle id="32" depart="44.80">
        <route edges="gneE2 -gneE1"/>
    </vehicle>
    <vehicle id="33" depart="46.20">
        <route edges="gneE3 -gneE2"/>
    </vehicle>
    <vehicle id="34" depart="47.60">
        <route edges="gneE1 -gneE2"/>
    </vehicle>
    <vehicle id="35" depart="49.00">
        <route edges="gneE1 -gneE2"/>
    </vehicle>
    <vehicle id="36" depart="50.40">
        <route edges="gneE2 -gneE1"/>
    </vehicle>
    <vehicle id="37" depart="51.80">
        <route edges="gneE1 -gneE2"/>
    </vehicle>
    <vehicle id="38" depart="53.20">
        <route edges="gneE1 -gneE2"/>
    </vehicle>
    <vehicle id="39" depart="54.60">
        <route edges="gneE3 -gneE1"/>
    </vehicle>
    <vehicle id="40" depart="56.00">
        <route edges="gneE3 -gneE2"/>
    </vehicle>
    <vehicle id="41" depart="57.40">
        <route edges="gneE1 -gneE2"/>
    </vehicle>
    <vehicle id="42" depart="58.80">
        <route edges="gneE3 -gneE2"/>
    </vehicle>
    <vehicle id="43" depart="60.20">
        <route edges="gneE2 -gneE1"/>
    </vehicle>
    <vehicle id="44" depart="61.60">
        <route edges="gneE3 -gneE1"/>
    </vehicle>
    <vehicle id="45" depart="63.00">
        <route edges="gneE1 -gneE2"/>
    </vehicle>
    <vehicle id="46" depart="64.40">
        <route edges="gneE3 -gneE1"/>
    </vehicle>
    <vehicle id="47" depart="65.80">
        <route edges="gneE3 -gneE1"/>
    </vehicle>
    <vehicle id="48" depart="67.20">
        <route edges="gneE2 -gneE1"/>
    </vehicle>
    <vehicle id="49" depart="68.60">
        <route edges="gneE1 -gneE2"/>
    </vehicle>
    <vehicle id="50" depart="70.00">
        <route edges="gneE2 -gneE1"/>
    </vehicle>
    <vehicle id="51" depart="71.40">
        <route edges="gneE3 -gneE2"/>
    </vehicle>
    <vehicle id="52" depart="72.80">
        <route edges="gneE2 -gneE1"/>
    </vehicle>
    <vehicle id="53" depart="74.20">
        <route edges="gneE1 -gneE2"/>
    </vehicle>
    <vehicle id="54" depart="75.60">
        <route edges="gneE2 -gneE1"/>
    </vehicle>
    <vehicle id="55" depart="77.00">
        <route edges="gneE3 -gneE2"/>
    </vehicle>
    <vehicle id="56" depart="78.40">
        <route edges="gneE2 -gneE1"/>
    </vehicle>
    <vehicle id="57" depart="79.80">
        <route edges="gneE3 -gneE2"/>
    </vehicle>
    <vehicle id="58" depart="81.20">
        <route edges="gneE2 -gneE1"/>
    </vehicle>
    <vehicle id="59" depart="82.60">
        <route edges="gneE3 -gneE2"/>
    </vehicle>
    <vehicle id="60" depart="84.00">
        <route edges="gneE3 -gneE1"/>
    </vehicle>
    <vehicle id="61" depart="85.40">
        <route edges="gneE2 -gneE1"/>
    </vehicle>
    <vehicle id="62" depart="86.80">
        <route edges="gneE3 -gneE2"/>
    </vehicle>
    <vehicle id="63" depart="88.20">
        <route edges="gneE1 -gneE2"/>
    </vehicle>
    <vehicle id="64" depart="89.60">
        <route edges="gneE1 -gneE2"/>
    </vehicle>
    <vehicle id="65" depart="91.00">
        <route edges="gneE3 -gneE1"/>
    </vehicle>
    <vehicle id="66" depart="92.40">
        <route edges="gneE3 -gneE2"/>
    </vehicle>
    <vehicle id="67" depart="93.80">
        <route edges="gneE3 -gneE1"/>
    </vehicle>
    <vehicle id="68" depart="95.20">
        <route edges="gneE3 -gneE2"/>
    </vehicle>
    <vehicle id="69" depart="96.60">
        <route edges="gneE1 -gneE2"/>
    </vehicle>
    <vehicle id="70" depart="98.00">
        <route edges="gneE1 -gneE2"/>
    </vehicle>
    <vehicle id="71" depart="99.40">
        <route edges="gneE3 -gneE1"/>
    </vehicle>
    <vehicle id="72" depart="100.80">
        <route edges="gneE3 -gneE1"/>
    </vehicle>
    <vehicle id="73" depart="102.20">
        <route edges="gneE3 -gneE2"/>
    </vehicle>
    <vehicle id="74" depart="103.60">
        <route edges="gneE3 -gneE1"/>
    </vehicle>
    <vehicle id="75" depart="105.00">
        <route edges="gneE3 -gneE1"/>
    </vehicle>
    <vehicle id="76" depart="106.40">
        <route edges="gneE3 -gneE1"/>
    </vehicle>
    <vehicle id="77" depart="107.80">
        <route edges="gneE1 -gneE2"/>
    </vehicle>
    <vehicle id="78" depart="109.20">
        <route edges="gneE2 -gneE1"/>
    </vehicle>
    <vehicle id="79" depart="110.60">
        <route edges="gneE2 -gneE1"/>
    </vehicle>
    <vehicle id="80" depart="112.00">
        <route edges="gneE3 -gneE1"/>
    </vehicle>
    <vehicle id="81" depart="113.40">
        <route edges="gneE3 -gneE1"/>
    </vehicle>
    <vehicle id="82" depart="114.80">
        <route edges="gneE3 -gneE2"/>
    </vehicle>
    <vehicle id="83" depart="116.20">
        <route edges="gneE2 -gneE1"/>
    </vehicle>
    <vehicle id="84" depart="117.60">
        <route edges="gneE3 -gneE1"/>
    </vehicle>
    <vehicle id="85" depart="119.00">
        <route edges="gneE3 -gneE1"/>
    </vehicle>
    <vehicle id="86" depart="120.40">
        <route edges="gneE1 -gneE2"/>
    </vehicle>
    <vehicle id="87" depart="121.80">
        <route edges="gneE3 -gneE2"/>
    </vehicle>
    <vehicle id="88" depart="123.20">
        <route edges="gneE1 -gneE2"/>
    </vehicle>
    <vehicle id="89" depart="124.60">
        <route edges="gneE3 -gneE1"/>
    </vehicle>
    <vehicle id="90" depart="126.00">
        <route edges="gneE3 -gneE1"/>
    </vehicle>
    <vehicle id="91" depart="127.40">
        <route edges="gneE3 -gneE1"/>
    </vehicle>
    <vehicle id="92" depart="128.80">
        <route edges="gneE2 -gneE1"/>
    </vehicle>
    <vehicle id="93" depart="130.20">
        <route edges="gneE2 -gneE1"/>
    </vehicle>
    <vehicle id="94" depart="131.60">
        <route edges="gneE2 -gneE1"/>
    </vehicle>
    <vehicle id="95" depart="133.00">
        <route edges="gneE3 -gneE1"/>
    </vehicle>
    <vehicle id="96" depart="134.40">
        <route edges="gneE1 -gneE2"/>
    </vehicle>
    <vehicle id="97" depart="135.80">
        <route edges="gneE2 -gneE1"/>
    </vehicle>
    <vehicle id="98" depart="137.20">
        <route edges="gneE3 -gneE1"/>
    </vehicle>
    <vehicle id="99" depart="138.60">
        <route edges="gneE3 -gneE1"/>
    </vehicle>
    <vehicle id="100" depart="140.00">
        <route edges="gneE1 -gneE2"/>
    </vehicle>
    <vehicle id="101" depart="141.40">
        <route edges="gneE3 -gneE1"/>
    </vehicle>
    <vehicle id="102" depart="142.80">
        <route edges="gneE3 -gneE2"/>
    </vehicle>
    <vehicle id="103" depart="144.20">
        <route edges="gneE3 -gneE2"/>
    </vehicle>
    <vehicle id="104" depart="145.60">
        <route edges="gneE3 -gneE2"/>
    </vehicle>
    <vehicle id="105" depart="147.00">
        <route edges="gneE3 -gneE1"/>
    </vehicle>
    <vehicle id="106" depart="148.40">
        <route edges="gneE1 -gneE2"/>
    </vehicle>
    <vehicle id="107" depart="149.80">
        <route edges="gneE3 -gneE2"/>
    </vehicle>
    <vehicle id="108" depart="151.20">
        <route edges="gneE3 -gneE1"/>
    </vehicle>
    <vehicle id="109" depart="152.60">
        <route edges="gneE1 -gneE2"/>
    </vehicle>
    <vehicle id="110" depart="154.00">
        <route edges="gneE3 -gneE2"/>
    </vehicle>
    <vehicle id="111" depart="155.40">
        <route edges="gneE3 -gneE2"/>
    </vehicle>
    <vehicle id="112" depart="156.80">
        <route edges="gneE2 -gneE1"/>
    </vehicle>
    <vehicle id="113" depart="158.20">
        <route edges="gneE3 -gneE1"/>
    </vehicle>
    <vehicle id="114" depart="159.60">
        <route edges="gneE3 -gneE2"/>
    </vehicle>
    <vehicle id="115" depart="161.00">
        <route edges="gneE2 -gneE1"/>
    </vehicle>
    <vehicle id="116" depart="162.40">
        <route edges="gneE3 -gneE2"/>
    </vehicle>
    <vehicle id="117" depart="163.80">
        <route edges="gneE3 -gneE1"/>
    </vehicle>
    <vehicle id="118" depart="165.20">
        <route edges="gneE1 -gneE2"/>
    </vehicle>
    <vehicle id="119" depart="166.60">
        <route edges="gneE1 -gneE2"/>
    </vehicle>
    <vehicle id="120" depart="168.00">
        <route edges="gneE3 -gneE1"/>
    </vehicle>
    <vehicle id="121" depart="169.40">
        <route edges="gneE3 -gneE1"/>
    </vehicle>
    <vehicle id="122" depart="170.80">
        <route edges="gneE3 -gneE2"/>
    </vehicle>
    <vehicle id="123" depart="172.20">
        <route edges="gneE2 -gneE1"/>
    </vehicle>
    <vehicle id="124" depart="173.60">
        <route edges="gneE1 -gneE2"/>
    </vehicle>
    <vehicle id="125" depart="175.00">
        <route edges="gneE1 -gneE2"/>
    </vehicle>
    <vehicle id="126" depart="176.40">
        <route edges="gneE3 -gneE2"/>
    </vehicle>
    <vehicle id="127" depart="177.80">
        <route edges="gneE2 -gneE1"/>
    </vehicle>
    <vehicle id="128" depart="179.20">
        <route edges="gneE3 -gneE2"/>
    </vehicle>
    <vehicle id="129" depart="180.60">
        <route edges="gneE3 -gneE1"/>
    </vehicle>
    <vehicle id="130" depart="182.00">
        <route edges="gneE3 -gneE2"/>
    </vehicle>
    <vehicle id="131" depart="183.40">
        <route edges="gneE3 -gneE1"/>
    </vehicle>
    <vehicle id="132" depart="184.80">
        <route edges="gneE1 -gneE2"/>
    </vehicle>
    <vehicle id="133" depart="186.20">
        <route edges="gneE3 -gneE2"/>
    </vehicle>
    <vehicle id="134" depart="187.60">
        <route edges="gneE3 -gneE1"/>
    </vehicle>
    <vehicle id="135" depart="189.00">
        <route edges="gneE1 -gneE2"/>
    </vehicle>
    <vehicle id="136" depart="190.40">
        <route edges="gneE2 -gneE1"/>
    </vehicle>
    <vehicle id="137" depart="191.80">
        <route edges="gneE3 -gneE1"/>
    </vehicle>
    <vehicle id="138" depart="193.20">
        <route edges="gneE3 -gneE2"/>
    </vehicle>
    <vehicle id="139" depart="194.60">
        <route edges="gneE3 -gneE1"/>
    </vehicle>
    <vehicle id="140" depart="196.00">
        <route edges="gneE3 -gneE1"/>
    </vehicle>
    <vehicle id="141" depart="197.40">
        <route edges="gneE1 -gneE2"/>
    </vehicle>
    <vehicle id="142" depart="198.80">
        <route edges="gneE1 -gneE2"/>
    </vehicle>
    <vehicle id="143" depart="200.20">
        <route edges="gneE3 -gneE1"/>
    </vehicle>
    <vehicle id="144" depart="201.60">
        <route edges="gneE3 -gneE2"/>
    </vehicle>
    <vehicle id="145" depart="203.00">
        <route edges="gneE3 -gneE2"/>
    </vehicle>
    <vehicle id="146" depart="204.40">
        <route edges="gneE3 -gneE2"/>
    </vehicle>
    <vehicle id="147" depart="205.80">
        <route edges="gneE3 -gneE1"/>
    </vehicle>
    <vehicle id="148" depart="207.20">
        <route edges="gneE3 -gneE2"/>
    </vehicle>
    <vehicle id="149" depart="208.60">
        <route edges="gneE1 -gneE2"/>
    </vehicle>
    <vehicle id="150" depart="210.00">
        <route edges="gneE2 -gneE1"/>
    </vehicle>
    <vehicle id="151" depart="211.40">
        <route edges="gneE2 -gneE1"/>
    </vehicle>
    <vehicle id="152" depart="212.80">
        <route edges="gneE1 -gneE2"/>
    </vehicle>
    <vehicle id="153" depart="214.20">
        <route edges="gneE2 -gneE1"/>
    </vehicle>
    <vehicle id="154" depart="215.60">
        <route edges="gneE3 -gneE1"/>
    </vehicle>
    <vehicle id="155" depart="217.00">
        <route edges="gneE2 -gneE1"/>
    </vehicle>
    <vehicle id="156" depart="218.40">
        <route edges="gneE3 -gneE2"/>
    </vehicle>
    <vehicle id="157" depart="219.80">
        <route edges="gneE3 -gneE1"/>
    </vehicle>
    <vehicle id="158" depart="221.20">
        <route edges="gneE1 -gneE2"/>
    </vehicle>
    <vehicle id="159" depart="222.60">
        <route edges="gneE2 -gneE1"/>
    </vehicle>
    <vehicle id="160" depart="224.00">
        <route edges="gneE1 -gneE2"/>
    </vehicle>
    <vehicle id="161" depart="225.40">
        <route edges="gneE3 -gneE1"/>
    </vehicle>
    <vehicle id="162" depart="226.80">
        <route edges="gneE1 -gneE2"/>
    </vehicle>
    <vehicle id="163" depart="228.20">
        <route edges="gneE2 -gneE1"/>
    </vehicle>
    <vehicle id="164" depart="229.60">
        <route edges="gneE3 -gneE1"/>
    </vehicle>
    <vehicle id="165" depart="231.00">
        <route edges="gneE3 -gneE1"/>
    </vehicle>
    <vehicle id="166" depart="232.40">
        <route edges="gneE1 -gneE2"/>
    </vehicle>
    <vehicle id="167" depart="233.80">
        <route edges="gneE2 -gneE1"/>
    </vehicle>
    <vehicle id="168" depart="235.20">
        <route edges="gneE3 -gneE1"/>
    </vehicle>
    <vehicle id="169" depart="236.60">
        <route edges="gneE3 -gneE2"/>
    </vehicle>
    <vehicle id="170" depart="238.00">
        <route edges="gneE1 -gneE2"/>
    </vehicle>
    <vehicle id="171" depart="239.40">
        <route edges="gneE3 -gneE2"/>
    </vehicle>
    <vehicle id="172" depart="240.80">
        <route edges="gneE3 -gneE1"/>
    </vehicle>
    <vehicle id="173" depart="242.20">
        <route edges="gneE1 -gneE2"/>
    </vehicle>
    <vehicle id="174" depart="243.60">
        <route edges="gneE3 -gneE1"/>
    </vehicle>
    <vehicle id="175" depart="245.00">
        <route edges="gneE3 -gneE2"/>
    </vehicle>
    <vehicle id="176" depart="246.40">
        <route edges="gneE3 -gneE2"/>
    </vehicle>
    <vehicle id="177" depart="247.80">
        <route edges="gneE3 -gneE1"/>
    </vehicle>
    <vehicle id="178" depart="249.20">
        <route edges="gneE3 -gneE1"/>
    </vehicle>
    <vehicle id="179" depart="250.60">
        <route edges="gneE3 -gneE1"/>
    </vehicle>
    <vehicle id="180" depart="252.00">
        <route edges="gneE2 -gneE1"/>
    </vehicle>
    <vehicle id="181" depart="253.40">
        <route edges="gneE2 -gneE1"/>
    </vehicle>
    <vehicle id="182" depart="254.80">
        <route edges="gneE3 -gneE2"/>
    </vehicle>
    <vehicle id="183" depart="256.20">
        <route edges="gneE3 -gneE2"/>
    </vehicle>
    <vehicle id="184" depart="257.60">
        <route edges="gneE2 -gneE1"/>
    </vehicle>
    <vehicle id="185" depart="259.00">
        <route edges="gneE3 -gneE1"/>
    </vehicle>
    <vehicle id="186" depart="260.40">
        <route edges="gneE3 -gneE1"/>
    </vehicle>
    <vehicle id="187" depart="261.80">
        <route edges="gneE3 -gneE1"/>
    </vehicle>
    <vehicle id="188" depart="263.20">
        <route edges="gneE2 -gneE1"/>
    </vehicle>
    <vehicle id="189" depart="264.60">
        <route edges="gneE3 -gneE1"/>
    </vehicle>
    <vehicle id="190" depart="266.00">
        <route edges="gneE1 -gneE2"/>
    </vehicle>
    <vehicle id="191" depart="267.40">
        <route edges="gneE1 -gneE2"/>
    </vehicle>
    <vehicle id="192" depart="268.80">
        <route edges="gneE3 -gneE1"/>
    </vehicle>
    <vehicle id="193" depart="270.20">
        <route edges="gneE3 -gneE1"/>
    </vehicle>
    <vehicle id="194" depart="271.60">
        <route edges="gneE3 -gneE1"/>
    </vehicle>
    <vehicle id="195" depart="273.00">
        <route edges="gneE3 -gneE2"/>
    </vehicle>
    <vehicle id="196" depart="274.40">
        <route edges="gneE1 -gneE2"/>
    </vehicle>
    <vehicle id="197" depart="275.80">
        <route edges="gneE2 -gneE1"/>
    </vehicle>
    <vehicle id="198" depart="277.20">
        <route edges="gneE2 -gneE1"/>
    </vehicle>
    <vehicle id="199" depart="278.60">
        <route edges="gneE3 -gneE2"/>
    </vehicle>
    <vehicle id="200" depart="280.00">
        <route edges="gneE1 -gneE2"/>
    </vehicle>
    <vehicle id="201" depart="281.40">
        <route edges="gneE3 -gneE2"/>
    </vehicle>
    <vehicle id="202" depart="282.80">
        <route edges="gneE2 -gneE1"/>
    </vehicle>
    <vehicle id="203" depart="284.20">
        <route edges="gneE2 -gneE1"/>
    </vehicle>
    <vehicle id="204" depart="285.60">
        <route edges="gneE2 -gneE1"/>
    </vehicle>
    <vehicle id="205" depart="287.00">
        <route edges="gneE3 -gneE2"/>
    </vehicle>
    <vehicle id="206" depart="288.40">
        <route edges="gneE1 -gneE2"/>
    </vehicle>
    <vehicle id="207" depart="289.80">
        <route edges="gneE2 -gneE1"/>
    </vehicle>
    <vehicle id="208" depart="291.20">
        <route edges="gneE3 -gneE1"/>
    </vehicle>
    <vehicle id="209" depart="292.60">
        <route edges="gneE3 -gneE1"/>
    </vehicle>
    <vehicle id="210" depart="294.00">
        <route edges="gneE2 -gneE1"/>
    </vehicle>
    <vehicle id="211" depart="295.40">
        <route edges="gneE3 -gneE1"/>
    </vehicle>
    <vehicle id="212" depart="296.80">
        <route edges="gneE2 -gneE1"/>
    </vehicle>
    <vehicle id="213" depart="298.20">
        <route edges="gneE3 -gneE2"/>
    </vehicle>
    <vehicle id="214" depart="299.60">
        <route edges="gneE3 -gneE1"/>
    </vehicle>
    <vehicle id="215" depart="301.00">
        <route edges="gneE3 -gneE2"/>
    </vehicle>
    <vehicle id="216" depart="302.40">
        <route edges="gneE2 -gneE1"/>
    </vehicle>
    <vehicle id="217" depart="303.80">
        <route edges="gneE3 -gneE1"/>
    </vehicle>
    <vehicle id="218" depart="305.20">
        <route edges="gneE1 -gneE2"/>
    </vehicle>
    <vehicle id="219" depart="306.60">
        <route edges="gneE1 -gneE2"/>
    </vehicle>
    <vehicle id="220" depart="308.00">
        <route edges="gneE3 -gneE2"/>
    </vehicle>
    <vehicle id="221" depart="309.40">
        <route edges="gneE1 -gneE2"/>
    </vehicle>
    <vehicle id="222" depart="310.80">
        <route edges="gneE3 -gneE2"/>
    </vehicle>
    <vehicle id="223" depart="312.20">
        <route edges="gneE2 -gneE1"/>
    </vehicle>
    <vehicle id="224" depart="313.60">
        <route edges="gneE1 -gneE2"/>
    </vehicle>
    <vehicle id="225" depart="315.00">
        <route edges="gneE3 -gneE2"/>
    </vehicle>
    <vehicle id="226" depart="316.40">
        <route edges="gneE3 -gneE1"/>
    </vehicle>
    <vehicle id="227" depart="317.80">
        <route edges="gneE2 -gneE1"/>
    </vehicle>
    <vehicle id="228" depart="319.20">
        <route edges="gneE3 -gneE2"/>
    </vehicle>
    <vehicle id="229" depart="320.60">
        <route edges="gneE1 -gneE2"/>
    </vehicle>
    <vehicle id="230" depart="322.00">
        <route edges="gneE3 -gneE1"/>
    </vehicle>
    <vehicle id="231" depart="323.40">
        <route edges="gneE1 -gneE2"/>
    </vehicle>
    <vehicle id="232" depart="324.80">
        <route edges="gneE3 -gneE2"/>
    </vehicle>
    <vehicle id="233" depart="326.20">
        <route edges="gneE3 -gneE2"/>
    </vehicle>
    <vehicle id="234" depart="327.60">
        <route edges="gneE3 -gneE1"/>
    </vehicle>
    <vehicle id="235" depart="329.00">
        <route edges="gneE3 -gneE1"/>
    </vehicle>
    <vehicle id="236" depart="330.40">
        <route edges="gneE3 -gneE1"/>
    </vehicle>
    <vehicle id="237" depart="331.80">
        <route edges="gneE3 -gneE1"/>
    </vehicle>
    <vehicle id="238" depart="333.20">
        <route edges="gneE1 -gneE2"/>
    </vehicle>
    <vehicle id="239" depart="334.60">
        <route edges="gneE2 -gneE1"/>
    </vehicle>
    <vehicle id="240" depart="336.00">
        <route edges="gneE3 -gneE2"/>
    </vehicle>
    <vehicle id="241" depart="337.40">
        <route edges="gneE2 -gneE1"/>
    </vehicle>
    <vehicle id="242" depart="338.80">
        <route edges="gneE1 -gneE2"/>
    </vehicle>
    <vehicle id="243" depart="340.20">
        <route edges="gneE1 -gneE2"/>
    </vehicle>
    <vehicle id="244" depart="341.60">
        <route edges="gneE3 -gneE2"/>
    </vehicle>
    <vehicle id="245" depart="343.00">
        <route edges="gneE3 -gneE2"/>
    </vehicle>
    <vehicle id="246" depart="344.40">
        <route edges="gneE2 -gneE1"/>
    </vehicle>
    <vehicle id="247" depart="345.80">
        <route edges="gneE1 -gneE2"/>
    </vehicle>
    <vehicle id="248" depart="347.20">
        <route edges="gneE3 -gneE1"/>
    </vehicle>
    <vehicle id="249" depart="348.60">
        <route edges="gneE1 -gneE2"/>
    </vehicle>
    <vehicle id="250" depart="350.00">
        <route edges="gneE3 -gneE2"/>
    </vehicle>
    <vehicle id="251" depart="351.40">
        <route edges="gneE3 -gneE1"/>
    </vehicle>
    <vehicle id="252" depart="352.80">
        <route edges="gneE2 -gneE1"/>
    </vehicle>
    <vehicle id="253" depart="354.20">
        <route edges="gneE3 -gneE1"/>
    </vehicle>
    <vehicle id="254" depart="355.60">
        <route edges="gneE3 -gneE1"/>
    </vehicle>
    <vehicle id="255" depart="357.00">
        <route edges="gneE2 -gneE1"/>
    </vehicle>
    <vehicle id="256" depart="358.40">
        <route edges="gneE3 -gneE2"/>
    </vehicle>
    <vehicle id="257" depart="359.80">
        <route edges="gneE1 -gneE2"/>
    </vehicle>
    <vehicle id="258" depart="361.20">
        <route edges="gneE1 -gneE2"/>
    </vehicle>
    <vehicle id="259" depart="362.60">
        <route edges="gneE1 -gneE2"/>
    </vehicle>
    <vehicle id="260" depart="364.00">
        <route edges="gneE2 -gneE1"/>
    </vehicle>
    <vehicle id="261" depart="365.40">
        <route edges="gneE3 -gneE1"/>
    </vehicle>
    <vehicle id="262" depart="366.80">
        <route edges="gneE1 -gneE2"/>
    </vehicle>
    <vehicle id="263" depart="368.20">
        <route edges="gneE1 -gneE2"/>
    </vehicle>
    <vehicle id="264" depart="369.60">
        <route edges="gneE1 -gneE2"/>
    </vehicle>
    <vehicle id="265" depart="371.00">
        <route edges="gneE1 -gneE2"/>
    </vehicle>
    <vehicle id="266" depart="372.40">
        <route edges="gneE3 -gneE2"/>
    </vehicle>
    <vehicle id="267" depart="373.80">
        <route edges="gneE2 -gneE1"/>
    </vehicle>
    <vehicle id="268" depart="375.20">
        <route edges="gneE3 -gneE2"/>
    </vehicle>
    <vehicle id="269" depart="376.60">
        <route edges="gneE3 -gneE2"/>
    </vehicle>
    <vehicle id="270" depart="378.00">
        <route edges="gneE3 -gneE1"/>
    </vehicle>
    <vehicle id="271" depart="379.40">
        <route edges="gneE3 -gneE2"/>
    </vehicle>
    <vehicle id="272" depart="380.80">
        <route edges="gneE2 -gneE1"/>
    </vehicle>
    <vehicle id="273" depart="382.20">
        <route edges="gneE3 -gneE2"/>
    </vehicle>
    <vehicle id="274" depart="383.60">
        <route edges="gneE3 -gneE2"/>
    </vehicle>
    <vehicle id="275" depart="385.00">
        <route edges="gneE1 -gneE2"/>
    </vehicle>
    <vehicle id="276" depart="386.40">
        <route edges="gneE3 -gneE2"/>
    </vehicle>
    <vehicle id="277" depart="387.80">
        <route edges="gneE3 -gneE1"/>
    </vehicle>
    <vehicle id="278" depart="389.20">
        <route edges="gneE3 -gneE1"/>
    </vehicle>
    <vehicle id="279" depart="390.60">
        <route edges="gneE3 -gneE1"/>
    </vehicle>
    <vehicle id="280" depart="392.00">
        <route edges="gneE3 -gneE2"/>
    </vehicle>
    <vehicle id="281" depart="393.40">
        <route edges="gneE1 -gneE2"/>
    </vehicle>
    <vehicle id="282" depart="394.80">
        <route edges="gneE3 -gneE1"/>
    </vehicle>
    <vehicle id="283" depart="396.20">
        <route edges="gneE1 -gneE2"/>
    </vehicle>
    <vehicle id="284" depart="397.60">
        <route edges="gneE3 -gneE2"/>
    </vehicle>
    <vehicle id="285" depart="399.00">
        <route edges="gneE3 -gneE2"/>
    </vehicle>
    <vehicle id="286" depart="400.40">
        <route edges="gneE3 -gneE2"/>
    </vehicle>
    <vehicle id="287" depart="401.80">
        <route edges="gneE2 -gneE1"/>
    </vehicle>
    <vehicle id="288" depart="403.20">
        <route edges="gneE2 -gneE1"/>
    </vehicle>
    <vehicle id="289" depart="404.60">
        <route edges="gneE1 -gneE2"/>
    </vehicle>
    <vehicle id="290" depart="406.00">
        <route edges="gneE1 -gneE2"/>
    </vehicle>
    <vehicle id="291" depart="407.40">
        <route edges="gneE2 -gneE1"/>
    </vehicle>
    <vehicle id="292" depart="408.80">
        <route edges="gneE1 -gneE2"/>
    </vehicle>
    <vehicle id="293" depart="410.20">
        <route edges="gneE3 -gneE1"/>
    </vehicle>
    <vehicle id="294" depart="411.60">
        <route edges="gneE3 -gneE2"/>
    </vehicle>
    <vehicle id="295" depart="413.00">
        <route edges="gneE3 -gneE2"/>
    </vehicle>
    <vehicle id="296" depart="414.40">
        <route edges="gneE3 -gneE1"/>
    </vehicle>
    <vehicle id="297" depart="415.80">
        <route edges="gneE3 -gneE1"/>
    </vehicle>
    <vehicle id="298" depart="417.20">
        <route edges="gneE3 -gneE1"/>
    </vehicle>
    <vehicle id="299" depart="418.60">
        <route edges="gneE1 -gneE2"/>
    </vehicle>
    <vehicle id="300" depart="420.00">
        <route edges="gneE1 -gneE2"/>
    </vehicle>
    <vehicle id="301" depart="421.40">
        <route edges="gneE2 -gneE1"/>
    </vehicle>
    <vehicle id="302" depart="422.80">
        <route edges="gneE3 -gneE2"/>
    </vehicle>
    <vehicle id="303" depart="424.20">
        <route edges="gneE3 -gneE1"/>
    </vehicle>
    <vehicle id="304" depart="425.60">
        <route edges="gneE2 -gneE1"/>
    </vehicle>
    <vehicle id="305" depart="427.00">
        <route edges="gneE3 -gneE1"/>
    </vehicle>
    <vehicle id="306" depart="428.40">
        <route edges="gneE3 -gneE1"/>
    </vehicle>
    <vehicle id="307" depart="429.80">
        <route edges="gneE1 -gneE2"/>
    </vehicle>
    <vehicle id="308" depart="431.20">
        <route edges="gneE2 -gneE1"/>
    </vehicle>
    <vehicle id="309" depart="432.60">
        <route edges="gneE2 -gneE1"/>
    </vehicle>
    <vehicle id="310" depart="434.00">
        <route edges="gneE2 -gneE1"/>
    </vehicle>
    <vehicle id="311" depart="435.40">
        <route edges="gneE1 -gneE2"/>
    </vehicle>
    <vehicle id="312" depart="436.80">
        <route edges="gneE1 -gneE2"/>
    </vehicle>
    <vehicle id="313" depart="438.20">
        <route edges="gneE1 -gneE2"/>
    </vehicle>
    <vehicle id="314" depart="439.60">
        <route edges="gneE2 -gneE1"/>
    </vehicle>
    <vehicle id="315" depart="441.00">
        <route edges="gneE3 -gneE2"/>
    </vehicle>
    <vehicle id="316" depart="442.40">
        <route edges="gneE1 -gneE2"/>
    </vehicle>
    <vehicle id="317" depart="443.80">
        <route edges="gneE3 -gneE1"/>