<?xml version="1.0" encoding="UTF-8"?>

<!-- generated on Sun May  6 21:12:19 2018 by SUMO duarouter Version 0.30.0
<?xml version="1.0" encoding="UTF-8"?>

<configuration xmlns:xsi="http://www.w3.org/2001/XMLSchema-instance" xsi:noNamespaceSchemaLocation="http://sumo.dlr.de/xsd/duarouterConfiguration.xsd">

    <input>
        <net-file value="simple_T/simple_T.net.xml"/>
        <route-files value="trips.trips.xml"/>
    </input>

    <output>
        <output-file value="simple_T/route/simple_T-1.1-3.rou.xml"/>
    </output>

    <processing>
        <ignore-errors value="true"/>
    </processing>

    <time>
        <begin value="0.0"/>
        <end value="1000.0"/>
    </time>

    <report>
        <no-warnings value="true"/>
        <no-step-log value="true"/>
    </report>

</configuration>
-->

<routes xmlns:xsi="http://www.w3.org/2001/XMLSchema-instance" xsi:noNamespaceSchemaLocation="http://sumo.dlr.de/xsd/routes_file.xsd">
    <vehicle id="0" depart="0.00">
        <route edges="gneE1 -gneE2"/>
    </vehicle>
    <vehicle id="1" depart="1.10">
        <route edges="gneE1 -gneE2"/>
    </vehicle>
    <vehicle id="2" depart="2.20">
        <route edges="gneE1 -gneE2"/>
    </vehicle>
    <vehicle id="3" depart="3.30">
        <route edges="gneE3 -gneE1"/>
    </vehicle>
    <vehicle id="4" depart="4.40">
        <route edges="gneE1 -gneE2"/>
    </vehicle>
    <vehicle id="5" depart="5.50">
        <route edges="gneE3 -gneE2"/>
    </vehicle>
    <vehicle id="6" depart="6.60">
        <route edges="gneE3 -gneE1"/>
    </vehicle>
    <vehicle id="7" depart="7.70">
        <route edges="gneE3 -gneE2"/>
    </vehicle>
    <vehicle id="8" depart="8.80">
        <route edges="gneE1 -gneE2"/>
    </vehicle>
    <vehicle id="9" depart="9.90">
        <route edges="gneE1 -gneE2"/>
    </vehicle>
    <vehicle id="11" depart="12.10">
        <route edges="gneE2 -gneE1"/>
    </vehicle>
    <vehicle id="12" depart="13.20">
        <route edges="gneE3 -gneE2"/>
    </vehicle>
    <vehicle id="13" depart="14.30">
        <route edges="gneE3 -gneE1"/>
    </vehicle>
    <vehicle id="17" depart="18.70">
        <route edges="gneE2 -gneE1"/>
    </vehicle>
    <vehicle id="18" depart="19.80">
        <route edges="gneE1 -gneE2"/>
    </vehicle>
    <vehicle id="19" depart="20.90">
        <route edges="gneE1 -gneE2"/>
    </vehicle>
    <vehicle id="20" depart="22.00">
        <route edges="gneE3 -gneE2"/>
    </vehicle>
    <vehicle id="22" depart="24.20">
        <route edges="gneE3 -gneE1"/>
    </vehicle>
    <vehicle id="23" depart="25.30">
        <route edges="gneE1 -gneE2"/>
    </vehicle>
    <vehicle id="24" depart="26.40">
        <route edges="gneE1 -gneE2"/>
    </vehicle>
    <vehicle id="25" depart="27.50">
        <route edges="gneE2 -gneE1"/>
    </vehicle>
    <vehicle id="26" depart="28.60">
        <route edges="gneE3 -gneE1"/>
    </vehicle>
    <vehicle id="29" depart="31.90">
        <route edges="gneE2 -gneE1"/>
    </vehicle>
    <vehicle id="30" depart="33.00">
        <route edges="gneE1 -gneE2"/>
    </vehicle>
    <vehicle id="34" depart="37.40">
        <route edges="gneE3 -gneE1"/>
    </vehicle>
    <vehicle id="35" depart="38.50">
        <route edges="gneE2 -gneE1"/>
    </vehicle>
    <vehicle id="37" depart="40.70">
        <route edges="gneE3 -gneE2"/>
    </vehicle>
    <vehicle id="38" depart="41.80">
        <route edges="gneE3 -gneE1"/>
    </vehicle>
    <vehicle id="39" depart="42.90">
        <route edges="gneE1 -gneE2"/>
    </vehicle>
    <vehicle id="40" depart="44.00">
        <route edges="gneE2 -gneE1"/>
    </vehicle>
    <vehicle id="44" depart="48.40">
        <route edges="gneE3 -gneE2"/>
    </vehicle>
    <vehicle id="46" depart="50.60">
        <route edges="gneE1 -gneE2"/>
    </vehicle>
    <vehicle id="48" depart="52.80">
        <route edges="gneE1 -gneE2"/>
    </vehicle>
    <vehicle id="49" depart="53.90">
        <route edges="gneE2 -gneE1"/>
    </vehicle>
    <vehicle id="51" depart="56.10">
        <route edges="gneE1 -gneE2"/>
    </vehicle>
    <vehicle id="52" depart="57.20">
        <route edges="gneE3 -gneE2"/>
    </vehicle>
    <vehicle id="55" depart="60.50">
        <route edges="gneE2 -gneE1"/>
    </vehicle>
    <vehicle id="57" depart="62.70">
        <route edges="gneE2 -gneE1"/>
    </vehicle>
    <vehicle id="58" depart="63.80">
        <route edges="gneE2 -gneE1"/>
    </vehicle>
    <vehicle id="60" depart="66.00">
        <route edges="gneE1 -gneE2"/>
    </vehicle>
    <vehicle id="63" depart="69.30">
        <route edges="gneE3 -gneE2"/>
    </vehicle>
    <vehicle id="64" depart="70.40">
        <route edges="gneE1 -gneE2"/>
    </vehicle>
    <vehicle id="67" depart="73.70">
        <route edges="gneE1 -gneE2"/>
    </vehicle>
    <vehicle id="68" depart="74.80">
        <route edges="gneE3 -gneE1"/>
    </vehicle>
    <vehicle id="69" depart="75.90">
        <route edges="gneE1 -gneE2"/>
    </vehicle>
    <vehicle id="70" depart="77.00">
        <route edges="gneE1 -gneE2"/>
    </vehicle>
    <vehicle id="72" depart="79.20">
        <route edges="gneE2 -gneE1"/>
    </vehicle>
    <vehicle id="74" depart="81.40">
        <route edges="gneE3 -gneE1"/>
    </vehicle>
    <vehicle id="75" depart="82.50">
        <route edges="gneE2 -gneE1"/>
    </vehicle>
    <vehicle id="76" depart="83.60">
        <route edges="gneE3 -gneE1"/>
    </vehicle>
    <vehicle id="77" depart="84.70">
        <route edges="gneE3 -gneE2"/>
    </vehicle>
    <vehicle id="78" depart="85.80">
        <route edges="gneE3 -gneE2"/>
    </vehicle>
    <vehicle id="80" depart="88.00">
        <route edges="gneE1 -gneE2"/>
    </vehicle>
    <vehicle id="81" depart="89.10">
        <route edges="gneE3 -gneE2"/>
    </vehicle>
    <vehicle id="83" depart="91.30">
        <route edges="gneE3 -gneE1"/>
    </vehicle>
    <vehicle id="84" depart="92.40">
        <route edges="gneE1 -gneE2"/>
    </vehicle>
    <vehicle id="85" depart="93.50">
        <route edges="gneE2 -gneE1"/>
    </vehicle>
    <vehicle id="86" depart="94.60">
        <route edges="gneE3 -gneE2"/>
    </vehicle>
    <vehicle id="87" depart="95.70">
        <route edges="gneE3 -gneE2"/>
    </vehicle>
    <vehicle id="88" depart="96.80">
        <route edges="gneE1 -gneE2"/>
    </vehicle>
    <vehicle id="90" depart="99.00">
        <route edges="gneE3 -gneE1"/>
    </vehicle>
    <vehicle id="95" depart="104.50">
        <route edges="gneE2 -gneE1"/>
    </vehicle>
    <vehicle id="96" depart="105.60">
        <route edges="gneE3 -gneE1"/>
    </vehicle>
    <vehicle id="97" depart="106.70">
        <route edges="gneE3 -gneE2"/>
    </vehicle>
    <vehicle id="98" depart="107.80">
        <route edges="gneE2 -gneE1"/>
    </vehicle>
    <vehicle id="99" depart="108.90">
        <route edges="gneE3 -gneE1"/>
    </vehicle>
    <vehicle id="101" depart="111.10">
        <route edges="gneE2 -gneE1"/>
    </vehicle>
    <vehicle id="102" depart="112.20">
        <route edges="gneE1 -gneE2"/>
    </vehicle>
    <vehicle id="103" depart="113.30">
        <route edges="gneE1 -gneE2"/>
    </vehicle>
    <vehicle id="104" depart="114.40">
        <route edges="gneE3 -gneE1"/>
    </vehicle>
    <vehicle id="105" depart="115.50">
        <route edges="gneE1 -gneE2"/>
    </vehicle>
    <vehicle id="106" depart="116.60">
        <route edges="gneE2 -gneE1"/>
    </vehicle>
    <vehicle id="110" depart="121.00">
        <route edges="gneE3 -gneE2"/>
    </vehicle>
    <vehicle id="112" depart="123.20">
        <route edges="gneE3 -gneE2"/>
    </vehicle>
    <vehicle id="116" depart="127.60">
        <route edges="gneE3 -gneE1"/>
    </vehicle>
    <vehicle id="117" depart="128.70">
        <route edges="gneE1 -gneE2"/>
    </vehicle>
    <vehicle id="118" depart="129.80">
        <route edges="gneE3 -gneE1"/>
    </vehicle>
    <vehicle id="119" depart="130.90">
        <route edges="gneE3 -gneE1"/>
    </vehicle>
    <vehicle id="120" depart="132.00">
        <route edges="gneE1 -gneE2"/>
    </vehicle>
    <vehicle id="122" depart="134.20">
        <route edges="gneE2 -gneE1"/>
    </vehicle>
    <vehicle id="123" depart="135.30">
        <route edges="gneE3 -gneE2"/>
    </vehicle>
    <vehicle id="124" depart="136.40">
        <route edges="gneE3 -gneE2"/>
    </vehicle>
    <vehicle id="126" depart="138.60">
        <route edges="gneE3 -gneE1"/>
    </vehicle>
    <vehicle id="128" depart="140.80">
        <route edges="gneE1 -gneE2"/>
    </vehicle>
    <vehicle id="129" depart="141.90">
        <route edges="gneE3 -gneE2"/>
    </vehicle>
    <vehicle id="130" depart="143.00">
        <route edges="gneE3 -gneE1"/>
    </vehicle>
    <vehicle id="131" depart="144.10">
        <route edges="gneE3 -gneE2"/>
    </vehicle>
    <vehicle id="132" depart="145.20">
        <route edges="gneE2 -gneE1"/>
    </vehicle>
    <vehicle id="135" depart="148.50">
        <route edges="gneE2 -gneE1"/>
    </vehicle>
    <vehicle id="138" depart="151.80">
        <route edges="gneE3 -gneE2"/>
    </vehicle>
    <vehicle id="140" depart="154.00">
        <route edges="gneE1 -gneE2"/>
    </vehicle>
    <vehicle id="144" depart="158.40">
        <route edges="gneE3 -gneE1"/>
    </vehicle>
    <vehicle id="145" depart="159.50">
        <route edges="gneE1 -gneE2"/>
    </vehicle>
    <vehicle id="146" depart="160.60">
        <route edges="gneE1 -gneE2"/>
    </vehicle>
    <vehicle id="147" depart="161.70">
        <route edges="gneE3 -gneE2"/>
    </vehicle>
    <vehicle id="148" depart="162.80">
        <route edges="gneE3 -gneE1"/>
    </vehicle>
    <vehicle id="149" depart="163.90">
        <route edges="gneE2 -gneE1"/>
    </vehicle>
    <vehicle id="150" depart="165.00">
        <route edges="gneE1 -gneE2"/>
    </vehicle>
    <vehicle id="152" depart="167.20">
        <route edges="gneE1 -gneE2"/>
    </vehicle>
    <vehicle id="153" depart="168.30">
        <route edges="gneE3 -gneE2"/>
    </vehicle>
    <vehicle id="155" depart="170.50">
        <route edges="gneE2 -gneE1"/>
    </vehicle>
    <vehicle id="156" depart="171.60">
        <route edges="gneE1 -gneE2"/>
    </vehicle>
    <vehicle id="158" depart="173.80">
        <route edges="gneE3 -gneE2"/>
    </vehicle>
    <vehicle id="162" depart="178.20">
        <route edges="gneE2 -gneE1"/>
    </vehicle>
    <vehicle id="165" depart="181.50">
        <route edges="gneE3 -gneE1"/>
    </vehicle>
    <vehicle id="167" depart="183.70">
        <route edges="gneE3 -gneE2"/>
    </vehicle>
    <vehicle id="168" depart="184.80">
        <route edges="gneE1 -gneE2"/>
    </vehicle>
    <vehicle id="171" depart="188.10">
        <route edges="gneE1 -gneE2"/>
    </vehicle>
    <vehicle id="172" depart="189.20">
        <route edges="gneE3 -gneE1"/>
    </vehicle>
    <vehicle id="175" depart="192.50">
        <route edges="gneE1 -gneE2"/>
    </vehicle>
    <vehicle id="178" depart="195.80">
        <route edges="gneE3 -gneE1"/>
    </vehicle>
    <vehicle id="179" depart="196.90">
        <route edges="gneE1 -gneE2"/>
    </vehicle>
    <vehicle id="180" depart="198.00">
        <route edges="gneE3 -gneE2"/>
    </vehicle>
    <vehicle id="182" depart="200.20">
        <route edges="gneE3 -gneE2"/>
    </vehicle>
    <vehicle id="183" depart="201.30">
        <route edges="gneE3 -gneE1"/>
    </vehicle>
    <vehicle id="184" depart="202.40">
        <route edges="gneE1 -gneE2"/>
    </vehicle>
    <vehicle id="185" depart="203.50">
        <route edges="gneE3 -gneE2"/>
    </vehicle>
    <vehicle id="186" depart="204.60">
        <route edges="gneE3 -gneE2"/>
    </vehicle>
    <vehicle id="187" depart="205.70">
        <route edges="gneE3 -gneE2"/>
    </vehicle>
    <vehicle id="188" depart="206.80">
        <route edges="gneE3 -gneE2"/>
    </vehicle>
    <vehicle id="189" depart="207.90">
        <route edges="gneE3 -gneE2"/>
    </vehicle>
    <vehicle id="190" depart="209.00">
        <route edges="gneE2 -gneE1"/>
    </vehicle>
    <vehicle id="191" depart="210.10">
        <route edges="gneE3 -gneE2"/>
    </vehicle>
    <vehicle id="192" depart="211.20">
        <route edges="gneE3 -gneE1"/>
    </vehicle>
    <vehicle id="193" depart="212.30">
        <route edges="gneE3 -gneE1"/>
    </vehicle>
    <vehicle id="194" depart="213.40">
        <route edges="gneE3 -gneE1"/>
    </vehicle>
    <vehicle id="197" depart="216.70">
        <route edges="gneE3 -gneE1"/>
    </vehicle>
    <vehicle id="201" depart="221.10">
        <route edges="gneE3 -gneE1"/>
    </vehicle>
    <vehicle id="202" depart="222.20">
        <route edges="gneE3 -gneE1"/>
    </vehicle>
    <vehicle id="203" depart="223.30">
        <route edges="gneE2 -gneE1"/>
    </vehicle>
    <vehicle id="204" depart="224.40">
        <route edges="gneE3 -gneE2"/>
    </vehicle>
    <vehicle id="206" depart="226.60">
        <route edges="gneE1 -gneE2"/>
    </vehicle>
    <vehicle id="208" depart="228.80">
        <route edges="gneE1 -gneE2"/>
    </vehicle>
    <vehicle id="209" depart="229.90">
        <route edges="gneE3 -gneE2"/>
    </vehicle>
    <vehicle id="210" depart="231.00">
        <route edges="gneE3 -gneE2"/>
    </vehicle>
    <vehicle id="211" depart="232.10">
        <route edges="gneE3 -gneE1"/>
    </vehicle>
    <vehicle id="215" depart="236.50">
        <route edges="gneE3 -gneE1"/>
    </vehicle>
    <vehicle id="216" depart="237.60">
        <route edges="gneE2 -gneE1"/>
    </vehicle>
    <vehicle id="217" depart="238.70">
        <route edges="gneE1 -gneE2"/>
    </vehicle>
    <vehicle id="218" depart="239.80">
        <route edges="gneE3 -gneE2"/>
    </vehicle>
    <vehicle id="220" depart="242.00">
        <route edges="gneE3 -gneE2"/>
    </vehicle>
    <vehicle id="221" depart="243.10">
        <route edges="gneE1 -gneE2"/>
    </vehicle>
    <vehicle id="222" depart="244.20">
        <route edges="gneE2 -gneE1"/>
    </vehicle>
    <vehicle id="223" depart="245.30">
        <route edges="gneE1 -gneE2"/>
    </vehicle>
    <vehicle id="226" depart="248.60">
        <route edges="gneE2 -gneE1"/>
    </vehicle>
    <vehicle id="228" depart="250.80">
        <route edges="gneE2 -gneE1"/>
    </vehicle>
    <vehicle id="229" depart="251.90">
        <route edges="gneE1 -gneE2"/>
    </vehicle>
    <vehicle id="233" depart="256.30">
        <route edges="gneE2 -gneE1"/>
    </vehicle>
    <vehicle id="235" depart="258.50">
        <route edges="gneE3 -gneE2"/>
    </vehicle>
    <vehicle id="236" depart="259.60">
        <route edges="gneE3 -gneE1"/>
    </vehicle>
    <vehicle id="241" depart="265.10">
        <route edges="gneE3 -gneE1"/>
    </vehicle>
    <vehicle id="242" depart="266.20">
        <route edges="gneE2 -gneE1"/>
    </vehicle>
    <vehicle id="243" depart="267.30">
        <route edges="gneE1 -gneE2"/>
    </vehicle>
    <vehicle id="244" depart="268.40">
        <route edges="gneE1 -gneE2"/>
    </vehicle>
    <vehicle id="245" depart="269.50">
        <route edges="gneE1 -gneE2"/>
    </vehicle>
    <vehicle id="246" depart="270.60">
        <route edges="gneE3 -gneE2"/>
    </vehicle>
    <vehicle id="247" depart="271.70">
        <route edges="gneE3 -gneE2"/>
    </vehicle>
    <vehicle id="251" depart="276.10">
        <route edges="gneE1 -gneE2"/>
    </vehicle>
    <vehicle id="252" depart="277.20">
        <route edges="gneE1 -gneE2"/>
    </vehicle>
    <vehicle id="255" depart="280.50">
        <route edges="gneE3 -gneE1"/>
    </vehicle>
    <vehicle id="256" depart="281.60">
        <route edges="gneE3 -gneE1"/>
    </vehicle>
    <vehicle id="257" depart="282.70">
        <route edges="gneE2 -gneE1"/>
    </vehicle>
    <vehicle id="263" depart="289.30">
        <route edges="gneE3 -gneE2"/>
    </vehicle>
    <vehicle id="264" depart="290.40">
        <route edges="gneE3 -gneE1"/>
    </vehicle>
    <vehicle id="265" depart="291.50">
        <route edges="gneE1 -gneE2"/>
    </vehicle>
    <vehicle id="266" depart="292.60">
        <route edges="gneE1 -gneE2"/>
    </vehicle>
    <vehicle id="270" depart="297.00">
        <route edges="gneE1 -gneE2"/>
    </vehicle>
    <vehicle id="271" depart="298.10">
        <route edges="gneE1 -gneE2"/>
    </vehicle>
    <vehicle id="272" depart="299.20">
        <route edges="gneE3 -gneE2"/>
    </vehicle>
    <vehicle id="273" depart="300.30">
        <route edges="gneE1 -gneE2"/>
    </vehicle>
    <vehicle id="275" depart="302.50">
        <route edges="gneE1 -gneE2"/>
    </vehicle>
    <vehicle id="276" depart="303.60">
        <route edges="gneE2 -gneE1"/>
    </vehicle>
    <vehicle id="277" depart="304.70">
        <route edges="gneE2 -gneE1"/>
    </vehicle>
    <vehicle id="278" depart="305.80">
        <route edges="gneE2 -gneE1"/>
    </vehicle>
    <vehicle id="279" depart="306.90">
        <route edges="gneE1 -gneE2"/>
    </vehicle>
    <vehicle id="281" depart="309.10">
        <route edges="gneE2 -gneE1"/>
    </vehicle>
    <vehicle id="282" depart="310.20">
        <route edges="gneE3 -gneE2"/>
    </vehicle>
    <vehicle id="284" depart="312.40">
        <route edges="gneE2 -gneE1"/>
    </vehicle>
    <vehicle id="286" depart="314.60">
        <route edges="gneE3 -gneE1"/>
    </vehicle>
    <vehicle id="288" depart="316.80">
        <route edges="gneE1 -gneE2"/>
    </vehicle>
    <vehicle id="290" depart="319.00">
        <route edges="gneE1 -gneE2"/>
    </vehicle>
    <vehicle id="291" depart="320.10">
        <route edges="gneE3 -gneE2"/>
    </vehicle>
    <vehicle id="294" depart="323.40">
        <route edges="gneE1 -gneE2"/>
    </vehicle>
    <vehicle id="295" depart="324.50">
        <route edges="gneE3 -gneE2"/>
    </vehicle>
    <vehicle id="297" depart="326.70">
        <route edges="gneE3 -gneE1"/>
    </vehicle>
    <vehicle id="298" depart="327.80">
        <route edges="gneE1 -gneE2"/>
    </vehicle>
    <vehicle id="299" depart="328.90">
        <route edges="gneE2 -gneE1"/>
    </vehicle>
    <vehicle id="301" depart="331.10">
        <route edges="gneE2 -gneE1"/>
    </vehicle>
    <vehicle id="302" depart="332.20">
        <route edges="gneE1 -gneE2"/>
    </vehicle>
    <vehicle id="303" depart="333.30">
        <route edges="gneE3 -gneE1"/>
    </vehicle>
    <vehicle id="304" depart="334.40">
        <route edges="gneE1 -gneE2"/>
    </vehicle>
    <vehicle id="306" depart="336.60">
        <route edges="gneE3 -gneE2"/>
    </vehicle>
    <vehicle id="307" depart="337.70">
        <route edges="gneE2 -gneE1"/>
    </vehicle>
    <vehicle id="308" depart="338.80">
        <route edges="gneE2 -gneE1"/>
    </vehicle>
    <vehicle id="310" depart="341.00">
        <route edges="gneE1 -gneE2"/>
    </vehicle>
    <vehicle id="311" depart="342.10">
        <route edges="gneE3 -gneE1"/>
    </vehicle>
    <vehicle id="313" depart="344.30">
        <route edges="gneE3 -gneE2"/>
    </vehicle>
    <vehicle id="314" depart="345.40">
        <route edges="gneE1 -gneE2"/>
    </vehicle>
    <vehicle id="315" depart="346.50">
        <route edges="gneE3 -gneE2"/>
    </vehicle>
    <vehicle id="317" depart="348.70">
        <route edges="gneE3 -gneE2"/>
    </vehicle>
    <vehicle id="318" depart="349.80">
        <route edges="gneE3 -gneE2"/>
    </vehicle>
    <vehicle id="319" depart="350.90">
        <route edges="gneE2 -gneE1"/>
    </vehicle>
    <vehicle id="320" depart="352.00">
        <route edges="gneE1 -gneE2"/>
    </vehicle>
    <vehicle id="322" depart="354.20">
        <route edges="gneE1 -gneE2"/>
    </vehicle>
    <vehicle id="324" depart="356.40">
        <route edges="gneE2 -gneE1"/>
    </vehicle>
    <vehicle id="326" depart="358.60">
        <route edges="gneE2 -gneE1"/>
    </vehicle>
    <vehicle id="327" depart="359.70">
        <route edges="gneE3 -gneE1"/>
    </vehicle>
    <vehicle id="330" depart="363.00">
        <route edges="gneE3 -gneE2"/>
    </vehicle>
    <vehicle id="331" depart="364.10">
        <route edges="gneE1 -gneE2"/>
    </vehicle>
    <vehicle id="334" depart="367.40">
        <route edges="gneE2 -gneE1"/>
    </vehicle>
    <vehicle id="336" depart="369.60">
        <route edges="gneE3 -gneE2"/>
    </vehicle>
    <vehicle id="337" depart="370.70">
        <route edges="gneE3 -gneE2"/>
    </vehicle>
    <vehicle id="338" depart="371.80">
        <route edges="gneE3 -gneE1"/>
    </vehicle>
    <vehicle id="339" depart="372.90">
        <route edges="gneE3 -gneE2"/>
    </vehicle>
    <vehicle id="341" depart="375.10">
        <route edges="gneE3 -gneE2"/>
    </vehicle>
    <vehicle id="342" depart="376.20">
        <route edges="gneE3 -gneE2"/>
    </vehicle>
    <vehicle id="343" depart="377.30">
        <route edges="gneE2 -gneE1"/>
    </vehicle>
    <vehicle id="344" depart="378.40">
        <route edges="gneE3 -gneE2"/>
    </vehicle>
    <vehicle id="345" depart="379.50">
        <route edges="gneE3 -gneE2"/>
    </vehicle>
    <vehicle id="346" depart="380.60">
        <route edges="gneE1 -gneE2"/>
    </vehicle>
    <vehicle id="348" depart="382.80">
        <route edges="gneE1 -gneE2"/>
    </vehicle>
    <vehicle id="349" depart="383.90">
        <route edges="gneE3 -gneE2"/>
    </vehicle>
    <vehicle id="350" depart="385.00">
        <route edges="gneE3 -gneE2"/>
    </vehicle>
    <vehicle id="351" depart="386.10">
        <route edges="gneE1 -gneE2"/>
    </vehicle>
    <vehicle id="353" depart="388.30">
        <route edges="gneE2 -gneE1"/>
    </vehicle>
    <vehicle id="354" depart="389.40">
        <route edges="gneE3 -gneE1"/>
    </vehicle>
    <vehicle id="355" depart="390.50">
        <route edges="gneE3 -gneE2"/>
    </vehicle>
    <vehicle id="356" depart="391.60">
        <route edges="gneE3 -gneE2"/>
    </vehicle>
    <vehicle id="357" depart="392.70">
        <route edges="gneE2 -gneE1"/>
    </vehicle>
    <vehicle id="358" depart="393.80">
        <route edges="gneE3 -gneE1"/>
    </vehicle>
    <vehicle id="359" depart="394.90">
        <route edges="gneE3 -gneE2"/>
    </vehicle>
    <vehicle id="361" depart="397.10">
        <route edges="gneE3 -gneE2"/>
    </vehicle>
    <vehicle id="365" depart="401.50">
        <route edges="gneE3 -gneE2"/>
    </vehicle>
    <vehicle id="366" depart="402.60">
        <route edges="gneE2 -gneE1"/>
    </vehicle>
    <vehicle id="367" depart="403.70">
        <route edges="gneE1 -gneE2"/>
    </vehicle>
    <vehicle id="370" depart="407.00">
        <route edges="gneE2 -gneE1"/>
    </vehicle>
    <vehicle id="371" depart="408.10">
        <route edges="gneE2 -gneE1"/>
    </vehicle>
    <vehicle id="372" depart="409.20">
        <route edges="gneE2 -gneE1"/>
    </vehicle>
    <vehicle id="373" depart="410.30">
        <route edges="gneE3 -gneE2"/>
    </vehicle>
    <vehicle id="374" depart="411.40">
        <route edges="gneE3 -gneE2"/>
    </vehicle>
    <vehicle id="377" depart="414.70">
        <route edges="gneE1 -gneE2"/>
    </vehicle>
    <vehicle id="378" depart="415.80">
        <route edges="gneE1 -gneE2"/>
    </vehicle>
    <vehicle id="379" depart="416.90">
        <route edges="gneE3 -gneE1"/>
    </vehicle>
    <vehicle id="382" depart="420.20">
        <route edges="gneE2 -gneE1"/>
    </vehicle>
    <vehicle id="383" depart="421.30">
        <route edges="gneE1 -gneE2"/>
    </vehicle>
    <vehicle id="384" depart="422.40">
        <route edges="gneE2 -gneE1"/>
    </vehicle>
    <vehicle id="385" depart="423.50">
        <route edges="gneE3 -gneE2"/>
    </vehicle>
    <vehicle id="392" depart="431.20">
        <route edges="gneE2 -gneE1"/>
    </vehicle>
    <vehicle id="393" depart="432.30">
        <route edges="gneE2 -gneE1"/>
    </vehicle>
    <vehicle id="394" depart="433.40">
        <route edges="gneE1 -gneE2"/>
    </vehicle>
    <vehicle id="396" depart="435.60">
        <route edges="gneE1 -gneE2"/>
    </vehicle>
    <vehicle id="397" depart="436.70">
        <route edges="gneE2 -gneE1"/>
    </vehicle>
    <vehicle id="398" depart="437.80">
        <route edges="gneE1 -gneE2"/>
    </vehicle>
    <vehicle id="401" depart="441.10">
        <route edges="gneE3 -gneE1"/>
    </vehicle>
    <vehicle id="402" depart="442.20">
        <route edges="gneE3 -gneE2"/>
    </vehicle>
    <vehicle id="403" depart="443.30">
        <route edges="gneE1 -gneE2"/>
    </vehicle>
    <vehicle id="404" depart="444.40">
        <route edges="gneE2 -gneE1"/>
    </vehicle>
    <vehicle id="405" depart="445.50">
        <route edges="gneE2 -gneE1"/>
    </vehicle>
    <vehicle id="406" depart="446.60">
        <route edges="gneE3 -gneE2"/>
    </vehicle>
    <vehicle id="407" depart="447.70">
        <route edges="gneE3 -gneE2"/>
    </vehicle>
    <vehicle id="408" depart="448.80">
        <route edges="gneE1 -gneE2"/>
    </vehicle>
    <vehicle id="410" depart="451.00">
        <route edges="gneE3 -gneE2"/>
    </vehicle>
    <vehicle id="412" depart="453.20">
        <route edges="gneE2 -gneE1"/>
    </vehicle>
    <vehicle id="413" depart="454.30">
        <route edges="gneE3 -gneE1"/>
    </vehicle>
    <vehicle id="414" depart="455.40">
        <route edges="gneE3 -gneE2"/>
    </vehicle>
    <vehicle id="415" depart="456.50">
        <route edges="gneE2 -gneE1"/>
    </vehicle>
    <vehicle id="416" depart="457.60">
        <route edges="gneE1 -gneE2"/>
    </vehicle>
    <vehicle id="418" depart="459.80">
        <route edges="gneE2 -gneE1"/>
    </vehicle>
    <vehicle id="419" depart="460.90">
        <route edges="gneE3 -gneE1"/>
    </vehicle>
    <vehicle id="420" depart="462.00">
        <route edges="gneE1 -gneE2"/>
    </vehicle>
    <vehicle id="421" depart="463.10">
        <route edges="gneE3 -gneE2"/>
    </vehicle>
    <vehicle id="422" depart="464.20">
        <route edges="gneE2 -gneE1"/>
    </vehicle>
    <vehicle id="423" depart="465.30">
        <route edges="gneE2 -gneE1"/>
    </vehicle>
    <vehicle id="428" depart="470.80">
        <route edges="gneE3 -gneE1"/>
    </vehicle>
    <vehicle id="430" depart="473.00">
        <route edges="gneE1 -gneE2"/>
    </vehicle>
    <vehicle id="431" depart="474.10">
        <route edges="gneE3 -gneE1"/>
    </vehicle>
    <vehicle id="435" depart="478.50">
        <route edges="gneE2 -gneE1"/>
    </vehicle>
    <vehicle id="438" depart="481.80">
        <route edges="gneE3 -gneE2"/>
    </vehicle>
    <vehicle id="439" depart="482.90">
        <route edges="gneE3 -gneE2"/>
    </vehicle>
    <vehicle id="440" depart="484.00">
        <route edges="gneE1 -gneE2"/>
    </vehicle>
    <vehicle id="442" depart="486.20">
        <route edges="gneE3 -gneE2"/>
    </vehicle>
    <vehicle id="448" depart="492.80">
        <route edges="gneE2 -gneE1"/>
    </vehicle>
    <vehicle id="449" depart="493.90">
        <route edges="gneE1 -gneE2"/>
    </vehicle>
    <vehicle id="451" depart="496.10">
        <route edges="gneE3 -gneE1"/>
    </vehicle>
    <vehicle id="452" depart="497.20">
        <route edges="gneE3 -gneE2"/>
    </vehicle>
    <vehicle id="453" depart="498.30">
        <route edges="gneE3 -gneE2"/>
    </vehicle>
    <vehicle id="454" depart="499.40">
        <route edges="gneE3 -gneE1"/>
    </vehicle>
    <vehicle id="455" depart="500.50">
        <route edges="gneE3 -gneE1"/>
    </vehicle>
    <vehicle id="456" depart="501.60">
        <route edges="gneE2 -gneE1"/>
    </vehicle>
    <vehicle id="457" depart="502.70">
        <route edges="gneE2 -gneE1"/>
    </vehicle>
    <vehicle id="459" depart="504.90">
        <route edges="gneE1 -gneE2"/>
    </vehicle>
    <vehicle id="462" depart="508.20">
        <route edges="gneE1 -gneE2"/>
    </vehicle>
    <vehicle id="463" depart="509.30">
        <route edges="gneE3 -gneE2"/>
    </vehicle>
    <vehicle id="466" depart="512.60">
        <route edges="gneE2 -gneE1"/>
    </vehicle>
    <vehicle id="467" depart="513.70">
        <route edges="gneE3 -gneE1"/>
    </vehicle>
    <vehicle id="469" depart="515.90">
        <route edges="gneE1 -gneE2"/>
    </vehicle>
    <vehicle id="470" depart="517.00">
        <route edges="gneE3 -gneE2"/>
    </vehicle>
    <vehicle id="472" depart="519.20">
        <route edges="gneE2 -gneE1"/>
    </vehicle>
    <vehicle id="474" depart="521.40">
        <route edges="gneE1 -gneE2"/>
    </vehicle>
    <vehicle id="475" depart="522.50">
        <route edges="gneE1 -gneE2"/>
    </vehicle>
    <vehicle id="476" depart="523.60">
        <route edges="gneE1 -gneE2"/>
    </vehicle>
    <vehicle id="478" depart="525.80">
        <route edges="gneE3 -gneE2"/>
    </vehicle>
    <vehicle id="480" depart="528.00">
        <route edges="gneE3 -gneE1"/>
    </vehicle>
    <vehicle id="481" depart="529.10">
        <route edges="gneE1 -gneE2"/>
    </vehicle>
    <vehicle id="482" depart="530.20">
        <route edges="gneE1 -gneE2"/>
    </vehicle>
    <vehicle id="483" depart="531.30">
        <route edges="gneE1 -gneE2"/>
    </vehicle>
    <vehicle id="484" depart="532.40">
        <route edges="gneE1 -gneE2"/>
    </vehicle>
    <vehicle id="485" depart="533.50">
        <route edges="gneE1 -gneE2"/>
    </vehicle>
    <vehicle id="486" depart="534.60">
        <route edges="gneE2 -gneE1"/>
    </vehicle>
    <vehicle id="487" depart="535.70">
        <route edges="gneE1 -gneE2"/>
    </vehicle>
    <vehicle id="488" depart="536.80">
        <route edges="gneE3 -gneE2"/>
    </vehicle>
    <vehicle id="490" depart="539.00">
        <route edges="gneE2 -gneE1"/>
    </vehicle>
    <vehicle id="492" depart="541.20">
        <route edges="gneE1 -gneE2"/>
    </vehicle>
    <vehicle id="496" depart="545.60">
        <route edges="gneE2 -gneE1"/>
    </vehicle>
    <vehicle id="497" depart="546.70">
        <route edges="gneE2 -gneE1"/>
    </vehicle>
    <vehicle id="498" depart="547.80">
        <route edges="gneE1 -gneE2"/>
    </vehicle>
    <vehicle id="499" depart="548.90">
        <route edges="gneE2 -gneE1"/>
    </vehicle>