<?xml version="1.0" encoding="UTF-8"?>

<!-- generated on Sun May  6 21:10:32 2018 by SUMO duarouter Version 0.30.0
<?xml version="1.0" encoding="UTF-8"?>

<configuration xmlns:xsi="http://www.w3.org/2001/XMLSchema-instance" xsi:noNamespaceSchemaLocation="http://sumo.dlr.de/xsd/duarouterConfiguration.xsd">

    <input>
        <net-file value="simple_T/simple_T.net.xml"/>
        <route-files value="trips.trips.xml"/>
    </input>

    <output>
        <output-file value="simple_T/route/simple_T-1.2-9.rou.xml"/>
    </output>

    <processing>
        <ignore-errors value="true"/>
    </processing>

    <time>
        <begin value="0.0"/>
        <end value="1000.0"/>
    </time>

    <report>
        <no-warnings value="true"/>
        <no-step-log value="true"/>
    </report>

</configuration>
-->

<routes xmlns:xsi="http://www.w3.org/2001/XMLSchema-instance" xsi:noNamespaceSchemaLocation="http://sumo.dlr.de/xsd/routes_file.xsd">
    <vehicle id="1" depart="1.20">
        <route edges="gneE1 -gneE2"/>
    </vehicle>
    <vehicle id="2" depart="2.40">
        <route edges="gneE3 -gneE1"/>
    </vehicle>
    <vehicle id="4" depart="4.80">
        <route edges="gneE2 -gneE1"/>
    </vehicle>
    <vehicle id="6" depart="7.20">
        <route edges="gneE3 -gneE1"/>
    </vehicle>
    <vehicle id="7" depart="8.40">
        <route edges="gneE2 -gneE1"/>
    </vehicle>
    <vehicle id="8" depart="9.60">
        <route edges="gneE3 -gneE1"/>
    </vehicle>
    <vehicle id="9" depart="10.80">
        <route edges="gneE3 -gneE2"/>
    </vehicle>
    <vehicle id="12" depart="14.40">
        <route edges="gneE2 -gneE1"/>
    </vehicle>
    <vehicle id="13" depart="15.60">
        <route edges="gneE2 -gneE1"/>
    </vehicle>
    <vehicle id="15" depart="18.00">
        <route edges="gneE2 -gneE1"/>
    </vehicle>
    <vehicle id="20" depart="24.00">
        <route edges="gneE3 -gneE1"/>
    </vehicle>
    <vehicle id="21" depart="25.20">
        <route edges="gneE3 -gneE1"/>
    </vehicle>
    <vehicle id="23" depart="27.60">
        <route edges="gneE1 -gneE2"/>
    </vehicle>
    <vehicle id="24" depart="28.80">
        <route edges="gneE1 -gneE2"/>
    </vehicle>
    <vehicle id="25" depart="30.00">
        <route edges="gneE2 -gneE1"/>
    </vehicle>
    <vehicle id="26" depart="31.20">
        <route edges="gneE3 -gneE2"/>
    </vehicle>
    <vehicle id="27" depart="32.40">
        <route edges="gneE2 -gneE1"/>
    </vehicle>
    <vehicle id="28" depart="33.60">
        <route edges="gneE2 -gneE1"/>
    </vehicle>
    <vehicle id="29" depart="34.80">
        <route edges="gneE3 -gneE1"/>
    </vehicle>
    <vehicle id="30" depart="36.00">
        <route edges="gneE3 -gneE2"/>
    </vehicle>
    <vehicle id="31" depart="37.20">
        <route edges="gneE2 -gneE1"/>
    </vehicle>
    <vehicle id="35" depart="42.00">
        <route edges="gneE3 -gneE1"/>
    </vehicle>
    <vehicle id="37" depart="44.40">
        <route edges="gneE1 -gneE2"/>
    </vehicle>
    <vehicle id="39" depart="46.80">
        <route edges="gneE2 -gneE1"/>
    </vehicle>
    <vehicle id="40" depart="48.00">
        <route edges="gneE1 -gneE2"/>
    </vehicle>
    <vehicle id="41" depart="49.20">
        <route edges="gneE1 -gneE2"/>
    </vehicle>
    <vehicle id="42" depart="50.40">
        <route edges="gneE3 -gneE2"/>
    </vehicle>
    <vehicle id="43" depart="51.60">
        <route edges="gneE1 -gneE2"/>
    </vehicle>
    <vehicle id="44" depart="52.80">
        <route edges="gneE3 -gneE1"/>
    </vehicle>
    <vehicle id="45" depart="54.00">
        <route edges="gneE3 -gneE1"/>
    </vehicle>
    <vehicle id="46" depart="55.20">
        <route edges="gneE1 -gneE2"/>
    </vehicle>
    <vehicle id="47" depart="56.40">
        <route edges="gneE1 -gneE2"/>
    </vehicle>
    <vehicle id="48" depart="57.60">
        <route edges="gneE2 -gneE1"/>
    </vehicle>
    <vehicle id="49" depart="58.80">
        <route edges="gneE3 -gneE1"/>
    </vehicle>
    <vehicle id="53" depart="63.60">
        <route edges="gneE1 -gneE2"/>
    </vehicle>
    <vehicle id="55" depart="66.00">
        <route edges="gneE1 -gneE2"/>
    </vehicle>
    <vehicle id="56" depart="67.20">
        <route edges="gneE3 -gneE2"/>
    </vehicle>
    <vehicle id="57" depart="68.40">
        <route edges="gneE2 -gneE1"/>
    </vehicle>
    <vehicle id="58" depart="69.60">
        <route edges="gneE3 -gneE1"/>
    </vehicle>
    <vehicle id="59" depart="70.80">
        <route edges="gneE3 -gneE1"/>
    </vehicle>
    <vehicle id="60" depart="72.00">
        <route edges="gneE3 -gneE1"/>
    </vehicle>
    <vehicle id="62" depart="74.40">
        <route edges="gneE1 -gneE2"/>
    </vehicle>
    <vehicle id="64" depart="76.80">
        <route edges="gneE3 -gneE1"/>
    </vehicle>
    <vehicle id="66" depart="79.20">
        <route edges="gneE2 -gneE1"/>
    </vehicle>
    <vehicle id="67" depart="80.40">
        <route edges="gneE3 -gneE2"/>
    </vehicle>
    <vehicle id="68" depart="81.60">
        <route edges="gneE2 -gneE1"/>
    </vehicle>
    <vehicle id="69" depart="82.80">
        <route edges="gneE3 -gneE1"/>
    </vehicle>
    <vehicle id="70" depart="84.00">
        <route edges="gneE1 -gneE2"/>
    </vehicle>
    <vehicle id="71" depart="85.20">
        <route edges="gneE3 -gneE2"/>
    </vehicle>
    <vehicle id="74" depart="88.80">
        <route edges="gneE3 -gneE2"/>
    </vehicle>
    <vehicle id="75" depart="90.00">
        <route edges="gneE1 -gneE2"/>
    </vehicle>
    <vehicle id="77" depart="92.40">
        <route edges="gneE3 -gneE1"/>
    </vehicle>
    <vehicle id="78" depart="93.60">
        <route edges="gneE2 -gneE1"/>
    </vehicle>
    <vehicle id="79" depart="94.80">
        <route edges="gneE1 -gneE2"/>
    </vehicle>
    <vehicle id="81" depart="97.20">
        <route edges="gneE2 -gneE1"/>
    </vehicle>
    <vehicle id="82" depart="98.40">
        <route edges="gneE1 -gneE2"/>
    </vehicle>
    <vehicle id="83" depart="99.60">
        <route edges="gneE1 -gneE2"/>
    </vehicle>
    <vehicle id="84" depart="100.80">
        <route edges="gneE3 -gneE2"/>
    </vehicle>
    <vehicle id="85" depart="102.00">
        <route edges="gneE2 -gneE1"/>
    </vehicle>
    <vehicle id="86" depart="103.20">
        <route edges="gneE2 -gneE1"/>
    </vehicle>
    <vehicle id="87" depart="104.40">
        <route edges="gneE3 -gneE2"/>
    </vehicle>
    <vehicle id="88" depart="105.60">
        <route edges="gneE3 -gneE2"/>
    </vehicle>
    <vehicle id="90" depart="108.00">
        <route edges="gneE3 -gneE1"/>
    </vehicle>
    <vehicle id="91" depart="109.20">
        <route edges="gneE3 -gneE2"/>
    </vehicle>
    <vehicle id="92" depart="110.40">
        <route edges="gneE3 -gneE1"/>
    </vehicle>
    <vehicle id="93" depart="111.60">
        <route edges="gneE3 -gneE1"/>
    </vehicle>
    <vehicle id="95" depart="114.00">
        <route edges="gneE1 -gneE2"/>
    </vehicle>
    <vehicle id="98" depart="117.60">
        <route edges="gneE2 -gneE1"/>
    </vehicle>
    <vehicle id="100" depart="120.00">
        <route edges="gneE2 -gneE1"/>
    </vehicle>
    <vehicle id="101" depart="121.20">
        <route edges="gneE2 -gneE1"/>
    </vehicle>
    <vehicle id="102" depart="122.40">
        <route edges="gneE2 -gneE1"/>
    </vehicle>
    <vehicle id="104" depart="124.80">
        <route edges="gneE2 -gneE1"/>
    </vehicle>
    <vehicle id="106" depart="127.20">
        <route edges="gneE3 -gneE1"/>
    </vehicle>
    <vehicle id="107" depart="128.40">
        <route edges="gneE3 -gneE1"/>
    </vehicle>
    <vehicle id="108" depart="129.60">
        <route edges="gneE3 -gneE1"/>
    </vehicle>
    <vehicle id="109" depart="130.80">
        <route edges="gneE1 -gneE2"/>
    </vehicle>
    <vehicle id="110" depart="132.00">
        <route edges="gneE3 -gneE2"/>
    </vehicle>
    <vehicle id="111" depart="133.20">
        <route edges="gneE3 -gneE1"/>
    </vehicle>
    <vehicle id="115" depart="138.00">
        <route edges="gneE3 -gneE2"/>
    </vehicle>
    <vehicle id="116" depart="139.20">
        <route edges="gneE2 -gneE1"/>
    </vehicle>
    <vehicle id="118" depart="141.60">
        <route edges="gneE3 -gneE2"/>
    </vehicle>
    <vehicle id="119" depart="142.80">
        <route edges="gneE2 -gneE1"/>
    </vehicle>
    <vehicle id="120" depart="144.00">
        <route edges="gneE3 -gneE1"/>
    </vehicle>
    <vehicle id="123" depart="147.60">
        <route edges="gneE2 -gneE1"/>
    </vehicle>
    <vehicle id="124" depart="148.80">
        <route edges="gneE2 -gneE1"/>
    </vehicle>
    <vehicle id="125" depart="150.00">
        <route edges="gneE1 -gneE2"/>
    </vehicle>
    <vehicle id="126" depart="151.20">
        <route edges="gneE3 -gneE2"/>
    </vehicle>
    <vehicle id="127" depart="152.40">
        <route edges="gneE2 -gneE1"/>
    </vehicle>
    <vehicle id="131" depart="157.20">
        <route edges="gneE1 -gneE2"/>
    </vehicle>
    <vehicle id="133" depart="159.60">
        <route edges="gneE1 -gneE2"/>
    </vehicle>
    <vehicle id="135" depart="162.00">
        <route edges="gneE3 -gneE2"/>
    </vehicle>
    <vehicle id="139" depart="166.80">
        <route edges="gneE3 -gneE2"/>
    </vehicle>
    <vehicle id="140" depart="168.00">
        <route edges="gneE2 -gneE1"/>
    </vehicle>
    <vehicle id="142" depart="170.40">
        <route edges="gneE2 -gneE1"/>
    </vehicle>
    <vehicle id="143" depart="171.60">
        <route edges="gneE3 -gneE1"/>
    </vehicle>
    <vehicle id="145" depart="174.00">
        <route edges="gneE3 -gneE1"/>
    </vehicle>
    <vehicle id="146" depart="175.20">
        <route edges="gneE3 -gneE1"/>
    </vehicle>
    <vehicle id="148" depart="177.60">
        <route edges="gneE2 -gneE1"/>
    </vehicle>
    <vehicle id="149" depart="178.80">
        <route edges="gneE3 -gneE2"/>
    </vehicle>
    <vehicle id="151" depart="181.20">
        <route edges="gneE2 -gneE1"/>
    </vehicle>
    <vehicle id="152" depart="182.40">
        <route edges="gneE3 -gneE2"/>
    </vehicle>
    <vehicle id="153" depart="183.60">
        <route edges="gneE2 -gneE1"/>
    </vehicle>
    <vehicle id="157" depart="188.40">
        <route edges="gneE3 -gneE1"/>
    </vehicle>
    <vehicle id="158" depart="189.60">
        <route edges="gneE3 -gneE1"/>
    </vehicle>
    <vehicle id="159" depart="190.80">
        <route edges="gneE3 -gneE1"/>
    </vehicle>
    <vehicle id="160" depart="192.00">
        <route edges="gneE1 -gneE2"/>
    </vehicle>
    <vehicle id="162" depart="194.40">
        <route edges="gneE2 -gneE1"/>
    </vehicle>
    <vehicle id="164" depart="196.80">
        <route edges="gneE2 -gneE1"/>
    </vehicle>
    <vehicle id="166" depart="199.20">
        <route edges="gneE3 -gneE2"/>
    </vehicle>
    <vehicle id="167" depart="200.40">
        <route edges="gneE2 -gneE1"/>
    </vehicle>
    <vehicle id="168" depart="201.60">
        <route edges="gneE3 -gneE2"/>
    </vehicle>
    <vehicle id="169" depart="202.80">
        <route edges="gneE3 -gneE1"/>
    </vehicle>
    <vehicle id="172" depart="206.40">
        <route edges="gneE2 -gneE1"/>
    </vehicle>
    <vehicle id="173" depart="207.60">
        <route edges="gneE1 -gneE2"/>
    </vehicle>
    <vehicle id="174" depart="208.80">
        <route edges="gneE3 -gneE1"/>
    </vehicle>
    <vehicle id="176" depart="211.20">
        <route edges="gneE1 -gneE2"/>
    </vehicle>
    <vehicle id="177" depart="212.40">
        <route edges="gneE3 -gneE1"/>
    </vehicle>
    <vehicle id="178" depart="213.60">
        <route edges="gneE3 -gneE2"/>
    </vehicle>
    <vehicle id="179" depart="214.80">
        <route edges="gneE2 -gneE1"/>
    </vehicle>
    <vehicle id="180" depart="216.00">
        <route edges="gneE3 -gneE1"/>
    </vehicle>
    <vehicle id="181" depart="217.20">
        <route edges="gneE3 -gneE1"/>
    </vehicle>
    <vehicle id="182" depart="218.40">
        <route edges="gneE3 -gneE2"/>
    </vehicle>
    <vehicle id="183" depart="219.60">
        <route edges="gneE2 -gneE1"/>
    </vehicle>
    <vehicle id="185" depart="222.00">
        <route edges="gneE3 -gneE2"/>
    </vehicle>
    <vehicle id="188" depart="225.60">
        <route edges="gneE3 -gneE1"/>
    </vehicle>
    <vehicle id="189" depart="226.80">
        <route edges="gneE2 -gneE1"/>
    </vehicle>
    <vehicle id="190" depart="228.00">
        <route edges="gneE2 -gneE1"/>
    </vehicle>
    <vehicle id="193" depart="231.60">
        <route edges="gneE3 -gneE1"/>
    </vehicle>
    <vehicle id="194" depart="232.80">
        <route edges="gneE3 -gneE2"/>
    </vehicle>
    <vehicle id="195" depart="234.00">
        <route edges="gneE3 -gneE2"/>
    </vehicle>
    <vehicle id="198" depart="237.60">
        <route edges="gneE3 -gneE2"/>
    </vehicle>
    <vehicle id="201" depart="241.20">
        <route edges="gneE3 -gneE1"/>
    </vehicle>
    <vehicle id="202" depart="242.40">
        <route edges="gneE1 -gneE2"/>
    </vehicle>
    <vehicle id="203" depart="243.60">
        <route edges="gneE3 -gneE2"/>
    </vehicle>
    <vehicle id="204" depart="244.80">
        <route edges="gneE3 -gneE1"/>
    </vehicle>
    <vehicle id="207" depart="248.40">
        <route edges="gneE1 -gneE2"/>
    </vehicle>
    <vehicle id="209" depart="250.80">
        <route edges="gneE2 -gneE1"/>
    </vehicle>
    <vehicle id="210" depart="252.00">
        <route edges="gneE1 -gneE2"/>
    </vehicle>
    <vehicle id="212" depart="254.40">
        <route edges="gneE1 -gneE2"/>
    </vehicle>
    <vehicle id="213" depart="255.60">
        <route edges="gneE3 -gneE2"/>
    </vehicle>
    <vehicle id="215" depart="258.00">
        <route edges="gneE3 -gneE1"/>
    </vehicle>
    <vehicle id="216" depart="259.20">
        <route edges="gneE1 -gneE2"/>
    </vehicle>
    <vehicle id="217" depart="260.40">
        <route edges="gneE1 -gneE2"/>
    </vehicle>
    <vehicle id="220" depart="264.00">
        <route edges="gneE2 -gneE1"/>
    </vehicle>
    <vehicle id="221" depart="265.20">
        <route edges="gneE1 -gneE2"/>
    </vehicle>
    <vehicle id="222" depart="266.40">
        <route edges="gneE2 -gneE1"/>
    </vehicle>
    <vehicle id="223" depart="267.60">
        <route edges="gneE2 -gneE1"/>
    </vehicle>
    <vehicle id="225" depart="270.00">
        <route edges="gneE3 -gneE1"/>
    </vehicle>
    <vehicle id="226" depart="271.20">
        <route edges="gneE2 -gneE1"/>
    </vehicle>
    <vehicle id="230" depart="276.00">
        <route edges="gneE3 -gneE1"/>
    </vehicle>
    <vehicle id="231" depart="277.20">
        <route edges="gneE3 -gneE2"/>
    </vehicle>
    <vehicle id="233" depart="279.60">
        <route edges="gneE1 -gneE2"/>
    </vehicle>
    <vehicle id="234" depart="280.80">
        <route edges="gneE3 -gneE1"/>
    </vehicle>
    <vehicle id="235" depart="282.00">
        <route edges="gneE3 -gneE2"/>
    </vehicle>
    <vehicle id="237" depart="284.40">
        <route edges="gneE3 -gneE2"/>
    </vehicle>
    <vehicle id="240" depart="288.00">
        <route edges="gneE2 -gneE1"/>
    </vehicle>
    <vehicle id="241" depart="289.20">
        <route edges="gneE1 -gneE2"/>
    </vehicle>
    <vehicle id="243" depart="291.60">
        <route edges="gneE1 -gneE2"/>
    </vehicle>
    <vehicle id="244" depart="292.80">
        <route edges="gneE3 -gneE2"/>
    </vehicle>
    <vehicle id="245" depart="294.00">
        <route edges="gneE1 -gneE2"/>
    </vehicle>
    <vehicle id="246" depart="295.20">
        <route edges="gneE3 -gneE2"/>
    </vehicle>
    <vehicle id="247" depart="296.40">
        <route edges="gneE2 -gneE1"/>
    </vehicle>
    <vehicle id="251" depart="301.20">
        <route edges="gneE2 -gneE1"/>
    </vehicle>
    <vehicle id="252" depart="302.40">
        <route edges="gneE3 -gneE2"/>
    </vehicle>
    <vehicle id="253" depart="303.60">
        <route edges="gneE3 -gneE2"/>
    </vehicle>
    <vehicle id="254" depart="304.80">
        <route edges="gneE1 -gneE2"/>
    </vehicle>
    <vehicle id="255" depart="306.00">
        <route edges="gneE1 -gneE2"/>
    </vehicle>
    <vehicle id="256" depart="307.20">
        <route edges="gneE1 -gneE2"/>
    </vehicle>
    <vehicle id="257" depart="308.40">
        <route edges="gneE2 -gneE1"/>
    </vehicle>
    <vehicle id="258" depart="309.60">
        <route edges="gneE2 -gneE1"/>
    </vehicle>
    <vehicle id="259" depart="310.80">
        <route edges="gneE3 -gneE2"/>
    </vehicle>
    <vehicle id="261" depart="313.20">
        <route edges="gneE2 -gneE1"/>
    </vehicle>
    <vehicle id="263" depart="315.60">
        <route edges="gneE3 -gneE1"/>
    </vehicle>
    <vehicle id="264" depart="316.80">
        <route edges="gneE3 -gneE2"/>
    </vehicle>
    <vehicle id="265" depart="318.00">
        <route edges="gneE3 -gneE2"/>
    </vehicle>
    <vehicle id="267" depart="320.40">
        <route edges="gneE3 -gneE2"/>
    </vehicle>
    <vehicle id="269" depart="322.80">
        <route edges="gneE3 -gneE1"/>
    </vehicle>
    <vehicle id="270" depart="324.00">
        <route edges="gneE1 -gneE2"/>
    </vehicle>
    <vehicle id="271" depart="325.20">
        <route edges="gneE1 -gneE2"/>
    </vehicle>
    <vehicle id="272" depart="326.40">
        <route edges="gneE2 -gneE1"/>
    </vehicle>
    <vehicle id="275" depart="330.00">
        <route edges="gneE3 -gneE2"/>
    </vehicle>
    <vehicle id="276" depart="331.20">
        <route edges="gneE3 -gneE2"/>
    </vehicle>
    <vehicle id="277" depart="332.40">
        <route edges="gneE1 -gneE2"/>
    </vehicle>
    <vehicle id="278" depart="333.60">
        <route edges="gneE2 -gneE1"/>
    </vehicle>
    <vehicle id="281" depart="337.20">
        <route edges="gneE3 -gneE2"/>
    </vehicle>
    <vehicle id="282" depart="338.40">
        <route edges="gneE3 -gneE1"/>
    </vehicle>
    <vehicle id="283" depart="339.60">
        <route edges="gneE2 -gneE1"/>
    </vehicle>
    <vehicle id="284" depart="340.80">
        <route edges="gneE3 -gneE1"/>
    </vehicle>
    <vehicle id="285" depart="342.00">
        <route edges="gneE1 -gneE2"/>
    </vehicle>
    <vehicle id="286" depart="343.20">
        <route edges="gneE1 -gneE2"/>
    </vehicle>
    <vehicle id="287" depart="344.40">
        <route edges="gneE1 -gneE2"/>
    </vehicle>
    <vehicle id="288" depart="345.60">
        <route edges="gneE3 -gneE2"/>
    </vehicle>
    <vehicle id="290" depart="348.00">
        <route edges="gneE1 -gneE2"/>
    </vehicle>
    <vehicle id="291" depart="349.20">
        <route edges="gneE2 -gneE1"/>
    </vehicle>
    <vehicle id="292" depart="350.40">
        <route edges="gneE1 -gneE2"/>
    </vehicle>
    <vehicle id="293" depart="351.60">
        <route edges="gneE3 -gneE2"/>
    </vehicle>
    <vehicle id="294" depart="352.80">
        <route edges="gneE3 -gneE2"/>
    </vehicle>
    <vehicle id="295" depart="354.00">
        <route edges="gneE1 -gneE2"/>
    </vehicle>
    <vehicle id="297" depart="356.40">
        <route edges="gneE3 -gneE1"/>
    </vehicle>
    <vehicle id="300" depart="360.00">
        <route edges="gneE1 -gneE2"/>
    </vehicle>
    <vehicle id="303" depart="363.60">
        <route edges="gneE3 -gneE2"/>
    </vehicle>
    <vehicle id="304" depart="364.80">
        <route edges="gneE1 -gneE2"/>
    </vehicle>
    <vehicle id="305" depart="366.00">
        <route edges="gneE1 -gneE2"/>
    </vehicle>
    <vehicle id="306" depart="367.20">
        <route edges="gneE1 -gneE2"/>
    </vehicle>
    <vehicle id="307" depart="368.40">
        <route edges="gneE3 -gneE2"/>
    </vehicle>
    <vehicle id="308" depart="369.60">
        <route edges="gneE3 -gneE1"/>
    </vehicle>
    <vehicle id="310" depart="372.00">
        <route edges="gneE1 -gneE2"/>
    </vehicle>
    <vehicle id="311" depart="373.20">
        <route edges="gneE2 -gneE1"/>
    </vehicle>
    <vehicle id="312" depart="374.40">
        <route edges="gneE3 -gneE1"/>
    </vehicle>
    <vehicle id="313" depart="375.60">
        <route edges="gneE2 -gneE1"/>
    </vehicle>
    <vehicle id="314" depart="376.80">
        <route edges="gneE1 -gneE2"/>
    </vehicle>
    <vehicle id="316" depart="379.20">
        <route edges="gneE2 -gneE1"/>
    </vehicle>
    <vehicle id="317" depart="380.40">
        <route edges="gneE2 -gneE1"/>
    </vehicle>
    <vehicle id="318" depart="381.60">
        <route edges="gneE2 -gneE1"/>
    </vehicle>
    <vehicle id="319" depart="382.80">
        <route edges="gneE2 -gneE1"/>
    </vehicle>
    <vehicle id="320" depart="384.00">
        <route edges="gneE2 -gneE1"/>
    </vehicle>
    <vehicle id="321" depart="385.20">
        <route edges="gneE2 -gneE1"/>
    </vehicle>
    <vehicle id="322" depart="386.40">
        <route edges="gneE3 -gneE1"/>
    </vehicle>
    <vehicle id="323" depart="387.60">
        <route edges="gneE2 -gneE1"/>
    </vehicle>
    <vehicle id="324" depart="388.80">
        <route edges="gneE2 -gneE1"/>
    </vehicle>
    <vehicle id="325" depart="390.00">
        <route edges="gneE1 -gneE2"/>
    </vehicle>
    <vehicle id="326" depart="391.20">
        <route edges="gneE3 -gneE2"/>
    </vehicle>
    <vehicle id="327" depart="392.40">
        <route edges="gneE3 -gneE2"/>
    </vehicle>
    <vehicle id="328" depart="393.60">
        <route edges="gneE3 -gneE1"/>
    </vehicle>
    <vehicle id="329" depart="394.80">
        <route edges="gneE2 -gneE1"/>
    </vehicle>
    <vehicle id="330" depart="396.00">
        <route edges="gneE3 -gneE1"/>
    </vehicle>
    <vehicle id="331" depart="397.20">
        <route edges="gneE3 -gneE1"/>
    </vehicle>
    <vehicle id="332" depart="398.40">
        <route edges="gneE3 -gneE2"/>
    </vehicle>
    <vehicle id="333" depart="399.60">
        <route edges="gneE3 -gneE1"/>
    </vehicle>
    <vehicle id="334" depart="400.80">
        <route edges="gneE3 -gneE2"/>
    </vehicle>
    <vehicle id="335" depart="402.00">
        <route edges="gneE2 -gneE1"/>
    </vehicle>
    <vehicle id="336" depart="403.20">
        <route edges="gneE3 -gneE2"/>
    </vehicle>
    <vehicle id="337" depart="404.40">
        <route edges="gneE1 -gneE2"/>
    </vehicle>
    <vehicle id="338" depart="405.60">
        <route edges="gneE1 -gneE2"/>
    </vehicle>
    <vehicle id="341" depart="409.20">
        <route edges="gneE3 -gneE1"/>
    </vehicle>
    <vehicle id="344" depart="412.80">
        <route edges="gneE3 -gneE2"/>
    </vehicle>
    <vehicle id="345" depart="414.00">
        <route edges="gneE3 -gneE1"/>
    </vehicle>
    <vehicle id="346" depart="415.20">
        <route edges="gneE1 -gneE2"/>
    </vehicle>
    <vehicle id="348" depart="417.60">
        <route edges="gneE1 -gneE2"/>
    </vehicle>
    <vehicle id="349" depart="418.80">
        <route edges="gneE1 -gneE2"/>
    </vehicle>
    <vehicle id="351" depart="421.20">
        <route edges="gneE2 -gneE1"/>
    </vehicle>
    <vehicle id="357" depart="428.40">
        <route edges="gneE3 -gneE2"/>
    </vehicle>
    <vehicle id="358" depart="429.60">
        <route edges="gneE3 -gneE1"/>
    </vehicle>
    <vehicle id="359" depart="430.80">
        <route edges="gneE3 -gneE2"/>
    </vehicle>
    <vehicle id="360" depart="432.00">
        <route edges="gneE3 -gneE1"/>
    </vehicle>
    <vehicle id="363" depart="435.60">
        <route edges="gneE3 -gneE2"/>
    </vehicle>
    <vehicle id="364" depart="436.80">
        <route edges="gneE2 -gneE1"/>
    </vehicle>
    <vehicle id="367" depart="440.40">
        <route edges="gneE2 -gneE1"/>
    </vehicle>
    <vehicle id="369" depart="442.80">
        <route edges="gneE3 -gneE1"/>
    </vehicle>
    <vehicle id="371" depart="445.20">
        <route edges="gneE1 -gneE2"/>
    </vehicle>
    <vehicle id="374" depart="448.80">
        <route edges="gneE3 -gneE2"/>
    </vehicle>
    <vehicle id="375" depart="450.00">
        <route edges="gneE3 -gneE1"/>
    </vehicle>
    <vehicle id="376" depart="451.20">
        <route edges="gneE1 -gneE2"/>
    </vehicle>
    <vehicle id="377" depart="452.40">
        <route edges="gneE3 -gneE1"/>
    </vehicle>
    <vehicle id="379" depart="454.80">
        <route edges="gneE1 -gneE2"/>
    </vehicle>
    <vehicle id="380" depart="456.00">
        <route edges="gneE1 -gneE2"/>
    </vehicle>
    <vehicle id="381" depart="457.20">
        <route edges="gneE3 -gneE2"/>
    </vehicle>
    <vehicle id="383" depart="459.60">
        <route edges="gneE1 -gneE2"/>
    </vehicle>
    <vehicle id="384" depart="460.80">
        <route edges="gneE1 -gneE2"/>
    </vehicle>
    <vehicle id="385" depart="462.00">
        <route edges="gneE3 -gneE1"/>
    </vehicle>
    <vehicle id="387" depart="464.40">
        <route edges="gneE3 -gneE2"/>
    </vehicle>
    <vehicle id="389" depart="466.80">
        <route edges="gneE1 -gneE2"/>
    </vehicle>
    <vehicle id="391" depart="469.20">
        <route edges="gneE3 -gneE1"/>
    </vehicle>
    <vehicle id="392" depart="470.40">
        <route edges="gneE2 -gneE1"/>
    </vehicle>
    <vehicle id="394" depart="472.80">
        <route edges="gneE1 -gneE2"/>
    </vehicle>
    <vehicle id="396" depart="475.20">
        <route edges="gneE2 -gneE1"/>
    </vehicle>
    <vehicle id="397" depart="476.40">
        <route edges="gneE3 -gneE1"/>
    </vehicle>
    <vehicle id="398" depart="477.60">
        <route edges="gneE2 -gneE1"/>
    </vehicle>
    <vehicle id="399" depart="478.80">
        <route edges="gneE1 -gneE2"/>
    </vehicle>
    <vehicle id="401" depart="481.20">
        <route edges="gneE3 -gneE2"/>
    </vehicle>
    <vehicle id="402" depart="482.40">
        <route edges="gneE3 -gneE1"/>
    </vehicle>
    <vehicle id="407" depart="488.40">
        <route edges="gneE1 -gneE2"/>
    </vehicle>
    <vehicle id="408" depart="489.60">
        <route edges="gneE2 -gneE1"/>
    </vehicle>
    <vehicle id="409" depart="490.80">
        <route edges="gneE3 -gneE2"/>
    </vehicle>
    <vehicle id="411" depart="493.20">
        <route edges="gneE3 -gneE2"/>
    </vehicle>
    <vehicle id="413" depart="495.60">
        <route edges="gneE3 -gneE1"/>
    </vehicle>
    <vehicle id="414" depart="496.80">
        <route edges="gneE3 -gneE2"/>
    </vehicle>
    <vehicle id="417" depart="500.40">
        <route edges="gneE2 -gneE1"/>
    </vehicle>
    <vehicle id="418" depart="501.60">
        <route edges="gneE3 -gneE1"/>
    </vehicle>
    <vehicle id="419" depart="502.80">
        <route edges="gneE3 -gneE2"/>
    </vehicle>
    <vehicle id="420" depart="504.00">
        <route edges="gneE1 -gneE2"/>
    </vehicle>
    <vehicle id="421" depart="505.20">
        <route edges="gneE3 -gneE1"/>
    </vehicle>
    <vehicle id="422" depart="506.40">
        <route edges="gneE3 -gneE1"/>
    </vehicle>
    <vehicle id="424" depart="508.80">
        <route edges="gneE1 -gneE2"/>
    </vehicle>
    <vehicle id="425" depart="510.00">
        <route edges="gneE3 -gneE1"/>
    </vehicle>
    <vehicle id="426" depart="511.20">
        <route edges="gneE1 -gneE2"/>
    </vehicle>
    <vehicle id="427" depart="512.40">
        <route edges="gneE3 -gneE1"/>
    </vehicle>
    <vehicle id="428" depart="513.60">
        <route edges="gneE1 -gneE2"/>
    </vehicle>
    <vehicle id="429" depart="514.80">
        <route edges="gneE3 -gneE2"/>
    </vehicle>
    <vehicle id="431" depart="517.20">
        <route edges="gneE3 -gneE1"/>
    </vehicle>
    <vehicle id="432" depart="518.40">
        <route edges="gneE3 -gneE1"/>
    </vehicle>
    <vehicle id="433" depart="519.60">
        <route edges="gneE2 -gneE1"/>
    </vehicle>
    <vehicle id="434" depart="520.80">
        <route edges="gneE2 -gneE1"/>
    </vehicle>
    <vehicle id="436" depart="523.20">
        <route edges="gneE3 -gneE2"/>
    </vehicle>
    <vehicle id="437" depart="524.40">
        <route edges="gneE1 -gneE2"/>
    </vehicle>
    <vehicle id="438" depart="525.60">
        <route edges="gneE2 -gneE1"/>
    </vehicle>
    <vehicle id="441" depart="529.20">
        <route edges="gneE3 -gneE2"/>
    </vehicle>
    <vehicle id="442" depart="530.40">
        <route edges="gneE1 -gneE2"/>
    </vehicle>
    <vehicle id="444" depart="532.80">
        <route edges="gneE3 -gneE1"/>
    </vehicle>
    <vehicle id="446" depart="535.20">
        <route edges="gneE1 -gneE2"/>
    </vehicle>
    <vehicle id="447" depart="536.40">
        <route edges="gneE3 -gneE1"/>
    </vehicle>
    <vehicle id="448" depart="537.60">
        <route edges="gneE3 -gneE1"/>
    </vehicle>
    <vehicle id="449" depart="538.80">
        <route edges="gneE3 -gneE1"/>
    </vehicle>
    <vehicle id="450" depart="540.00">
        <route edges="gneE1 -gneE2"/>
    </vehicle>
    <vehicle id="451" depart="541.20">
        <route edges="gneE2 -gneE1"/>
    </vehicle>
    <vehicle id="452" depart="542.40">
        <route edges="gneE3 -gneE1"/>
    </vehicle>
    <vehicle id="454" depart="544.80">
        <route edges="gneE2 -gneE1"/>
    </vehicle>
    <vehicle id="456" depart="547.20">
        <route edges="gneE1 -gneE2"/>
    </vehicle>
    <vehicle id="457" depart="548.40">
        <route edges="gneE3 -gneE1"/>
    </vehicle>
    <vehicle id="460" depart="552.00">
        <route edges="gneE3 -gneE2"/>
    </vehicle>
    <vehicle id="461" depart="553.20">
        <route edges="gneE1 -gneE2"/>
    </vehicle>
    <vehicle id="462" depart="554.40">
        <route edges="gneE3 -gneE1"/>
    </vehicle>
    <vehicle id="464" depart="556.80">
        <route edges="gneE1 -gneE2"/>
    </vehicle>
    <vehicle id="465" depart="558.00">
        <route edges="gneE3 -gneE2"/>
    </vehicle>
    <vehicle id="467" depart="560.40">
        <route edges="gneE3 -gneE2"/>
    </vehicle>
    <vehicle id="468" depart="561.60">
        <route edges="gneE2 -gneE1"/>
    </vehicle>
    <vehicle id="470" depart="564.00">
        <route edges="gneE1 -gneE2"/>
    </vehicle>