<?xml version="1.0" encoding="UTF-8"?>

<!-- generated on Sun May  6 21:10:15 2018 by SUMO duarouter Version 0.30.0
<?xml version="1.0" encoding="UTF-8"?>

<configuration xmlns:xsi="http://www.w3.org/2001/XMLSchema-instance" xsi:noNamespaceSchemaLocation="http://sumo.dlr.de/xsd/duarouterConfiguration.xsd">

    <input>
        <net-file value="simple_T/simple_T.net.xml"/>
        <route-files value="trips.trips.xml"/>
    </input>

    <output>
        <output-file value="simple_T/route/simple_T-0.8-4.rou.xml"/>
    </output>

    <processing>
        <ignore-errors value="true"/>
    </processing>

    <time>
        <begin value="0.0"/>
        <end value="1000.0"/>
    </time>

    <report>
        <no-warnings value="true"/>
        <no-step-log value="true"/>
    </report>

</configuration>
-->

<routes xmlns:xsi="http://www.w3.org/2001/XMLSchema-instance" xsi:noNamespaceSchemaLocation="http://sumo.dlr.de/xsd/routes_file.xsd">
    <vehicle id="0" depart="0.00">
        <route edges="gneE3 -gneE2"/>
    </vehicle>
    <vehicle id="3" depart="2.40">
        <route edges="gneE3 -gneE1"/>
    </vehicle>
    <vehicle id="6" depart="4.80">
        <route edges="gneE2 -gneE1"/>
    </vehicle>
    <vehicle id="8" depart="6.40">
        <route edges="gneE2 -gneE1"/>
    </vehicle>
    <vehicle id="9" depart="7.20">
        <route edges="gneE2 -gneE1"/>
    </vehicle>
    <vehicle id="10" depart="8.00">
        <route edges="gneE3 -gneE2"/>
    </vehicle>
    <vehicle id="13" depart="10.40">
        <route edges="gneE3 -gneE1"/>
    </vehicle>
    <vehicle id="14" depart="11.20">
        <route edges="gneE1 -gneE2"/>
    </vehicle>
    <vehicle id="15" depart="12.00">
        <route edges="gneE1 -gneE2"/>
    </vehicle>
    <vehicle id="16" depart="12.80">
        <route edges="gneE3 -gneE1"/>
    </vehicle>
    <vehicle id="17" depart="13.60">
        <route edges="gneE3 -gneE2"/>
    </vehicle>
    <vehicle id="18" depart="14.40">
        <route edges="gneE3 -gneE2"/>
    </vehicle>
    <vehicle id="20" depart="16.00">
        <route edges="gneE1 -gneE2"/>
    </vehicle>
    <vehicle id="21" depart="16.80">
        <route edges="gneE2 -gneE1"/>
    </vehicle>
    <vehicle id="22" depart="17.60">
        <route edges="gneE3 -gneE1"/>
    </vehicle>
    <vehicle id="23" depart="18.40">
        <route edges="gneE3 -gneE1"/>
    </vehicle>
    <vehicle id="24" depart="19.20">
        <route edges="gneE3 -gneE1"/>
    </vehicle>
    <vehicle id="25" depart="20.00">
        <route edges="gneE1 -gneE2"/>
    </vehicle>
    <vehicle id="26" depart="20.80">
        <route edges="gneE3 -gneE1"/>
    </vehicle>
    <vehicle id="27" depart="21.60">
        <route edges="gneE3 -gneE1"/>
    </vehicle>
    <vehicle id="28" depart="22.40">
        <route edges="gneE3 -gneE1"/>
    </vehicle>
    <vehicle id="29" depart="23.20">
        <route edges="gneE3 -gneE1"/>
    </vehicle>
    <vehicle id="30" depart="24.00">
        <route edges="gneE2 -gneE1"/>
    </vehicle>
    <vehicle id="31" depart="24.80">
        <route edges="gneE1 -gneE2"/>
    </vehicle>
    <vehicle id="32" depart="25.60">
        <route edges="gneE1 -gneE2"/>
    </vehicle>
    <vehicle id="33" depart="26.40">
        <route edges="gneE3 -gneE2"/>
    </vehicle>
    <vehicle id="35" depart="28.00">
        <route edges="gneE1 -gneE2"/>
    </vehicle>
    <vehicle id="36" depart="28.80">
        <route edges="gneE3 -gneE2"/>
    </vehicle>
    <vehicle id="38" depart="30.40">
        <route edges="gneE3 -gneE1"/>
    </vehicle>
    <vehicle id="39" depart="31.20">
        <route edges="gneE3 -gneE2"/>
    </vehicle>
    <vehicle id="40" depart="32.00">
        <route edges="gneE3 -gneE2"/>
    </vehicle>
    <vehicle id="42" depart="33.60">
        <route edges="gneE1 -gneE2"/>
    </vehicle>
    <vehicle id="43" depart="34.40">
        <route edges="gneE2 -gneE1"/>
    </vehicle>
    <vehicle id="45" depart="36.00">
        <route edges="gneE2 -gneE1"/>
    </vehicle>
    <vehicle id="47" depart="37.60">
        <route edges="gneE2 -gneE1"/>
    </vehicle>
    <vehicle id="49" depart="39.20">
        <route edges="gneE3 -gneE1"/>
    </vehicle>
    <vehicle id="50" depart="40.00">
        <route edges="gneE1 -gneE2"/>
    </vehicle>
    <vehicle id="51" depart="40.80">
        <route edges="gneE3 -gneE2"/>
    </vehicle>
    <vehicle id="52" depart="41.60">
        <route edges="gneE3 -gneE2"/>
    </vehicle>
    <vehicle id="55" depart="44.00">
        <route edges="gneE3 -gneE2"/>
    </vehicle>
    <vehicle id="56" depart="44.80">
        <route edges="gneE3 -gneE2"/>
    </vehicle>
    <vehicle id="57" depart="45.60">
        <route edges="gneE3 -gneE2"/>
    </vehicle>
    <vehicle id="59" depart="47.20">
        <route edges="gneE2 -gneE1"/>
    </vehicle>
    <vehicle id="60" depart="48.00">
        <route edges="gneE2 -gneE1"/>
    </vehicle>
    <vehicle id="63" depart="50.40">
        <route edges="gneE2 -gneE1"/>
    </vehicle>
    <vehicle id="64" depart="51.20">
        <route edges="gneE2 -gneE1"/>
    </vehicle>
    <vehicle id="65" depart="52.00">
        <route edges="gneE2 -gneE1"/>
    </vehicle>
    <vehicle id="66" depart="52.80">
        <route edges="gneE3 -gneE2"/>
    </vehicle>
    <vehicle id="67" depart="53.60">
        <route edges="gneE1 -gneE2"/>
    </vehicle>
    <vehicle id="69" depart="55.20">
        <route edges="gneE3 -gneE2"/>
    </vehicle>
    <vehicle id="70" depart="56.00">
        <route edges="gneE1 -gneE2"/>
    </vehicle>
    <vehicle id="72" depart="57.60">
        <route edges="gneE3 -gneE2"/>
    </vehicle>
    <vehicle id="73" depart="58.40">
        <route edges="gneE1 -gneE2"/>
    </vehicle>
    <vehicle id="75" depart="60.00">
        <route edges="gneE1 -gneE2"/>
    </vehicle>
    <vehicle id="78" depart="62.40">
        <route edges="gneE3 -gneE1"/>
    </vehicle>
    <vehicle id="80" depart="64.00">
        <route edges="gneE1 -gneE2"/>
    </vehicle>
    <vehicle id="81" depart="64.80">
        <route edges="gneE2 -gneE1"/>
    </vehicle>
    <vehicle id="83" depart="66.40">
        <route edges="gneE3 -gneE2"/>
    </vehicle>
    <vehicle id="84" depart="67.20">
        <route edges="gneE1 -gneE2"/>
    </vehicle>
    <vehicle id="88" depart="70.40">
        <route edges="gneE1 -gneE2"/>
    </vehicle>
    <vehicle id="89" depart="71.20">
        <route edges="gneE2 -gneE1"/>
    </vehicle>
    <vehicle id="90" depart="72.00">
        <route edges="gneE1 -gneE2"/>
    </vehicle>
    <vehicle id="91" depart="72.80">
        <route edges="gneE3 -gneE1"/>
    </vehicle>
    <vehicle id="92" depart="73.60">
        <route edges="gneE3 -gneE2"/>
    </vehicle>
    <vehicle id="93" depart="74.40">
        <route edges="gneE3 -gneE2"/>
    </vehicle>
    <vehicle id="94" depart="75.20">
        <route edges="gneE3 -gneE1"/>
    </vehicle>
    <vehicle id="95" depart="76.00">
        <route edges="gneE3 -gneE2"/>
    </vehicle>
    <vehicle id="96" depart="76.80">
        <route edges="gneE3 -gneE2"/>
    </vehicle>
    <vehicle id="97" depart="77.60">
        <route edges="gneE3 -gneE2"/>
    </vehicle>
    <vehicle id="98" depart="78.40">
        <route edges="gneE2 -gneE1"/>
    </vehicle>
    <vehicle id="99" depart="79.20">
        <route edges="gneE3 -gneE1"/>
    </vehicle>
    <vehicle id="100" depart="80.00">
        <route edges="gneE1 -gneE2"/>
    </vehicle>
    <vehicle id="102" depart="81.60">
        <route edges="gneE3 -gneE1"/>
    </vehicle>
    <vehicle id="103" depart="82.40">
        <route edges="gneE3 -gneE2"/>
    </vehicle>
    <vehicle id="104" depart="83.20">
        <route edges="gneE3 -gneE1"/>
    </vehicle>
    <vehicle id="105" depart="84.00">
        <route edges="gneE1 -gneE2"/>
    </vehicle>
    <vehicle id="106" depart="84.80">
        <route edges="gneE3 -gneE2"/>
    </vehicle>
    <vehicle id="107" depart="85.60">
        <route edges="gneE1 -gneE2"/>
    </vehicle>
    <vehicle id="108" depart="86.40">
        <route edges="gneE1 -gneE2"/>
    </vehicle>
    <vehicle id="109" depart="87.20">
        <route edges="gneE3 -gneE1"/>
    </vehicle>
    <vehicle id="110" depart="88.00">
        <route edges="gneE3 -gneE1"/>
    </vehicle>
    <vehicle id="111" depart="88.80">
        <route edges="gneE1 -gneE2"/>
    </vehicle>
    <vehicle id="112" depart="89.60">
        <route edges="gneE1 -gneE2"/>
    </vehicle>
    <vehicle id="113" depart="90.40">
        <route edges="gneE3 -gneE1"/>
    </vehicle>
    <vehicle id="114" depart="91.20">
        <route edges="gneE1 -gneE2"/>
    </vehicle>
    <vehicle id="115" depart="92.00">
        <route edges="gneE3 -gneE2"/>
    </vehicle>
    <vehicle id="116" depart="92.80">
        <route edges="gneE2 -gneE1"/>
    </vehicle>
    <vehicle id="117" depart="93.60">
        <route edges="gneE2 -gneE1"/>
    </vehicle>
    <vehicle id="118" depart="94.40">
        <route edges="gneE3 -gneE2"/>
    </vehicle>
    <vehicle id="119" depart="95.20">
        <route edges="gneE3 -gneE1"/>
    </vehicle>
    <vehicle id="120" depart="96.00">
        <route edges="gneE2 -gneE1"/>
    </vehicle>
    <vehicle id="121" depart="96.80">
        <route edges="gneE3 -gneE2"/>
    </vehicle>
    <vehicle id="122" depart="97.60">
        <route edges="gneE2 -gneE1"/>
    </vehicle>
    <vehicle id="126" depart="100.80">
        <route edges="gneE3 -gneE2"/>
    </vehicle>
    <vehicle id="127" depart="101.60">
        <route edges="gneE1 -gneE2"/>
    </vehicle>
    <vehicle id="128" depart="102.40">
        <route edges="gneE3 -gneE2"/>
    </vehicle>
    <vehicle id="130" depart="104.00">
        <route edges="gneE3 -gneE2"/>
    </vehicle>
    <vehicle id="131" depart="104.80">
        <route edges="gneE3 -gneE1"/>
    </vehicle>
    <vehicle id="132" depart="105.60">
        <route edges="gneE3 -gneE1"/>
    </vehicle>
    <vehicle id="133" depart="106.40">
        <route edges="gneE3 -gneE2"/>
    </vehicle>
    <vehicle id="134" depart="107.20">
        <route edges="gneE3 -gneE2"/>
    </vehicle>
    <vehicle id="136" depart="108.80">
        <route edges="gneE3 -gneE1"/>
    </vehicle>
    <vehicle id="137" depart="109.60">
        <route edges="gneE1 -gneE2"/>
    </vehicle>
    <vehicle id="138" depart="110.40">
        <route edges="gneE3 -gneE1"/>
    </vehicle>
    <vehicle id="139" depart="111.20">
        <route edges="gneE2 -gneE1"/>
    </vehicle>
    <vehicle id="140" depart="112.00">
        <route edges="gneE3 -gneE2"/>
    </vehicle>
    <vehicle id="143" depart="114.40">
        <route edges="gneE2 -gneE1"/>
    </vehicle>
    <vehicle id="145" depart="116.00">
        <route edges="gneE2 -gneE1"/>
    </vehicle>
    <vehicle id="146" depart="116.80">
        <route edges="gneE1 -gneE2"/>
    </vehicle>
    <vehicle id="147" depart="117.60">
        <route edges="gneE3 -gneE1"/>
    </vehicle>
    <vehicle id="148" depart="118.40">
        <route edges="gneE3 -gneE2"/>
    </vehicle>
    <vehicle id="149" depart="119.20">
        <route edges="gneE2 -gneE1"/>
    </vehicle>
    <vehicle id="150" depart="120.00">
        <route edges="gneE1 -gneE2"/>
    </vehicle>
    <vehicle id="151" depart="120.80">
        <route edges="gneE3 -gneE1"/>
    </vehicle>
    <vehicle id="152" depart="121.60">
        <route edges="gneE3 -gneE1"/>
    </vehicle>
    <vehicle id="153" depart="122.40">
        <route edges="gneE3 -gneE1"/>
    </vehicle>
    <vehicle id="154" depart="123.20">
        <route edges="gneE1 -gneE2"/>
    </vehicle>
    <vehicle id="157" depart="125.60">
        <route edges="gneE1 -gneE2"/>
    </vehicle>
    <vehicle id="159" depart="127.20">
        <route edges="gneE1 -gneE2"/>
    </vehicle>
    <vehicle id="160" depart="128.00">
        <route edges="gneE3 -gneE1"/>
    </vehicle>
    <vehicle id="163" depart="130.40">
        <route edges="gneE3 -gneE2"/>
    </vehicle>
    <vehicle id="164" depart="131.20">
        <route edges="gneE1 -gneE2"/>
    </vehicle>
    <vehicle id="166" depart="132.80">
        <route edges="gneE3 -gneE1"/>
    </vehicle>
    <vehicle id="167" depart="133.60">
        <route edges="gneE1 -gneE2"/>
    </vehicle>
    <vehicle id="170" depart="136.00">
        <route edges="gneE2 -gneE1"/>
    </vehicle>
    <vehicle id="173" depart="138.40">
        <route edges="gneE3 -gneE2"/>
    </vehicle>
    <vehicle id="174" depart="139.20">
        <route edges="gneE3 -gneE1"/>
    </vehicle>
    <vehicle id="175" depart="140.00">
        <route edges="gneE1 -gneE2"/>
    </vehicle>
    <vehicle id="176" depart="140.80">
        <route edges="gneE1 -gneE2"/>
    </vehicle>
    <vehicle id="177" depart="141.60">
        <route edges="gneE1 -gneE2"/>
    </vehicle>
    <vehicle id="178" depart="142.40">
        <route edges="gneE3 -gneE1"/>
    </vehicle>
    <vehicle id="179" depart="143.20">
        <route edges="gneE2 -gneE1"/>
    </vehicle>
    <vehicle id="180" depart="144.00">
        <route edges="gneE3 -gneE2"/>
    </vehicle>
    <vehicle id="181" depart="144.80">
        <route edges="gneE3 -gneE1"/>
    </vehicle>
    <vehicle id="184" depart="147.20">
        <route edges="gneE3 -gneE2"/>
    </vehicle>
    <vehicle id="185" depart="148.00">
        <route edges="gneE2 -gneE1"/>
    </vehicle>
    <vehicle id="186" depart="148.80">
        <route edges="gneE1 -gneE2"/>
    </vehicle>
    <vehicle id="187" depart="149.60">
        <route edges="gneE2 -gneE1"/>
    </vehicle>
    <vehicle id="190" depart="152.00">
        <route edges="gneE1 -gneE2"/>
    </vehicle>
    <vehicle id="192" depart="153.60">
        <route edges="gneE1 -gneE2"/>
    </vehicle>
    <vehicle id="193" depart="154.40">
        <route edges="gneE2 -gneE1"/>
    </vehicle>
    <vehicle id="195" depart="156.00">
        <route edges="gneE1 -gneE2"/>
    </vehicle>
    <vehicle id="196" depart="156.80">
        <route edges="gneE3 -gneE1"/>
    </vehicle>
    <vehicle id="197" depart="157.60">
        <route edges="gneE3 -gneE2"/>
    </vehicle>
    <vehicle id="198" depart="158.40">
        <route edges="gneE2 -gneE1"/>
    </vehicle>
    <vehicle id="199" depart="159.20">
        <route edges="gneE2 -gneE1"/>
    </vehicle>
    <vehicle id="200" depart="160.00">
        <route edges="gneE2 -gneE1"/>
    </vehicle>
    <vehicle id="201" depart="160.80">
        <route edges="gneE3 -gneE1"/>
    </vehicle>
    <vehicle id="202" depart="161.60">
        <route edges="gneE2 -gneE1"/>
    </vehicle>
    <vehicle id="204" depart="163.20">
        <route edges="gneE2 -gneE1"/>
    </vehicle>
    <vehicle id="207" depart="165.60">
        <route edges="gneE1 -gneE2"/>
    </vehicle>
    <vehicle id="208" depart="166.40">
        <route edges="gneE3 -gneE2"/>
    </vehicle>
    <vehicle id="209" depart="167.20">
        <route edges="gneE1 -gneE2"/>
    </vehicle>
    <vehicle id="213" depart="170.40">
        <route edges="gneE1 -gneE2"/>
    </vehicle>
    <vehicle id="214" depart="171.20">
        <route edges="gneE2 -gneE1"/>
    </vehicle>
    <vehicle id="215" depart="172.00">
        <route edges="gneE1 -gneE2"/>
    </vehicle>
    <vehicle id="216" depart="172.80">
        <route edges="gneE3 -gneE2"/>
    </vehicle>
    <vehicle id="217" depart="173.60">
        <route edges="gneE2 -gneE1"/>
    </vehicle>
    <vehicle id="218" depart="174.40">
        <route edges="gneE3 -gneE2"/>
    </vehicle>
    <vehicle id="222" depart="177.60">
        <route edges="gneE1 -gneE2"/>
    </vehicle>
    <vehicle id="223" depart="178.40">
        <route edges="gneE1 -gneE2"/>
    </vehicle>
    <vehicle id="224" depart="179.20">
        <route edges="gneE3 -gneE1"/>
    </vehicle>
    <vehicle id="225" depart="180.00">
        <route edges="gneE1 -gneE2"/>
    </vehicle>
    <vehicle id="226" depart="180.80">
        <route edges="gneE3 -gneE1"/>
    </vehicle>
    <vehicle id="227" depart="181.60">
        <route edges="gneE3 -gneE1"/>
    </vehicle>
    <vehicle id="228" depart="182.40">
        <route edges="gneE2 -gneE1"/>
    </vehicle>
    <vehicle id="229" depart="183.20">
        <route edges="gneE1 -gneE2"/>
    </vehicle>
    <vehicle id="230" depart="184.00">
        <route edges="gneE1 -gneE2"/>
    </vehicle>
    <vehicle id="231" depart="184.80">
        <route edges="gneE2 -gneE1"/>
    </vehicle>
    <vehicle id="232" depart="185.60">
        <route edges="gneE3 -gneE2"/>
    </vehicle>
    <vehicle id="233" depart="186.40">
        <route edges="gneE3 -gneE1"/>
    </vehicle>
    <vehicle id="237" depart="189.60">
        <route edges="gneE2 -gneE1"/>
    </vehicle>
    <vehicle id="238" depart="190.40">
        <route edges="gneE1 -gneE2"/>
    </vehicle>
    <vehicle id="240" depart="192.00">
        <route edges="gneE3 -gneE2"/>
    </vehicle>
    <vehicle id="241" depart="192.80">
        <route edges="gneE1 -gneE2"/>
    </vehicle>
    <vehicle id="244" depart="195.20">
        <route edges="gneE2 -gneE1"/>
    </vehicle>
    <vehicle id="245" depart="196.00">
        <route edges="gneE2 -gneE1"/>
    </vehicle>
    <vehicle id="246" depart="196.80">
        <route edges="gneE3 -gneE2"/>
    </vehicle>
    <vehicle id="252" depart="201.60">
        <route edges="gneE1 -gneE2"/>
    </vehicle>
    <vehicle id="253" depart="202.40">
        <route edges="gneE1 -gneE2"/>
    </vehicle>
    <vehicle id="254" depart="203.20">
        <route edges="gneE3 -gneE1"/>
    </vehicle>
    <vehicle id="255" depart="204.00">
        <route edges="gneE3 -gneE2"/>
    </vehicle>
    <vehicle id="256" depart="204.80">
        <route edges="gneE2 -gneE1"/>
    </vehicle>
    <vehicle id="257" depart="205.60">
        <route edges="gneE3 -gneE2"/>
    </vehicle>
    <vehicle id="262" depart="209.60">
        <route edges="gneE1 -gneE2"/>
    </vehicle>
    <vehicle id="263" depart="210.40">
        <route edges="gneE3 -gneE1"/>
    </vehicle>
    <vehicle id="264" depart="211.20">
        <route edges="gneE3 -gneE1"/>
    </vehicle>
    <vehicle id="265" depart="212.00">
        <route edges="gneE2 -gneE1"/>
    </vehicle>
    <vehicle id="267" depart="213.60">
        <route edges="gneE1 -gneE2"/>
    </vehicle>
    <vehicle id="270" depart="216.00">
        <route edges="gneE3 -gneE1"/>
    </vehicle>
    <vehicle id="271" depart="216.80">
        <route edges="gneE3 -gneE2"/>
    </vehicle>
    <vehicle id="275" depart="220.00">
        <route edges="gneE1 -gneE2"/>
    </vehicle>
    <vehicle id="276" depart="220.80">
        <route edges="gneE3 -gneE2"/>
    </vehicle>
    <vehicle id="278" depart="222.40">
        <route edges="gneE3 -gneE1"/>
    </vehicle>
    <vehicle id="279" depart="223.20">
        <route edges="gneE3 -gneE2"/>
    </vehicle>
    <vehicle id="280" depart="224.00">
        <route edges="gneE2 -gneE1"/>
    </vehicle>
    <vehicle id="281" depart="224.80">
        <route edges="gneE1 -gneE2"/>
    </vehicle>
    <vehicle id="282" depart="225.60">
        <route edges="gneE1 -gneE2"/>
    </vehicle>
    <vehicle id="283" depart="226.40">
        <route edges="gneE3 -gneE2"/>
    </vehicle>
    <vehicle id="285" depart="228.00">
        <route edges="gneE3 -gneE1"/>
    </vehicle>
    <vehicle id="286" depart="228.80">
        <route edges="gneE2 -gneE1"/>
    </vehicle>
    <vehicle id="288" depart="230.40">
        <route edges="gneE1 -gneE2"/>
    </vehicle>
    <vehicle id="289" depart="231.20">
        <route edges="gneE1 -gneE2"/>
    </vehicle>
    <vehicle id="290" depart="232.00">
        <route edges="gneE3 -gneE2"/>
    </vehicle>
    <vehicle id="291" depart="232.80">
        <route edges="gneE3 -gneE2"/>
    </vehicle>
    <vehicle id="292" depart="233.60">
        <route edges="gneE1 -gneE2"/>
    </vehicle>
    <vehicle id="293" depart="234.40">
        <route edges="gneE3 -gneE1"/>
    </vehicle>
    <vehicle id="294" depart="235.20">
        <route edges="gneE2 -gneE1"/>
    </vehicle>
    <vehicle id="295" depart="236.00">
        <route edges="gneE3 -gneE2"/>
    </vehicle>
    <vehicle id="297" depart="237.60">
        <route edges="gneE2 -gneE1"/>
    </vehicle>
    <vehicle id="299" depart="239.20">
        <route edges="gneE1 -gneE2"/>
    </vehicle>
    <vehicle id="301" depart="240.80">
        <route edges="gneE1 -gneE2"/>
    </vehicle>
    <vehicle id="302" depart="241.60">
        <route edges="gneE3 -gneE1"/>
    </vehicle>
    <vehicle id="303" depart="242.40">
        <route edges="gneE3 -gneE1"/>
    </vehicle>
    <vehicle id="304" depart="243.20">
        <route edges="gneE3 -gneE1"/>
    </vehicle>
    <vehicle id="305" depart="244.00">
        <route edges="gneE3 -gneE2"/>
    </vehicle>
    <vehicle id="306" depart="244.80">
        <route edges="gneE3 -gneE1"/>
    </vehicle>
    <vehicle id="307" depart="245.60">
        <route edges="gneE3 -gneE2"/>
    </vehicle>
    <vehicle id="308" depart="246.40">
        <route edges="gneE3 -gneE1"/>
    </vehicle>
    <vehicle id="312" depart="249.60">
        <route edges="gneE2 -gneE1"/>
    </vehicle>
    <vehicle id="313" depart="250.40">
        <route edges="gneE2 -gneE1"/>
    </vehicle>
    <vehicle id="315" depart="252.00">
        <route edges="gneE3 -gneE1"/>
    </vehicle>
    <vehicle id="317" depart="253.60">
        <route edges="gneE2 -gneE1"/>
    </vehicle>
    <vehicle id="322" depart="257.60">
        <route edges="gneE2 -gneE1"/>
    </vehicle>
    <vehicle id="323" depart="258.40">
        <route edges="gneE1 -gneE2"/>
    </vehicle>
    <vehicle id="324" depart="259.20">
        <route edges="gneE3 -gneE2"/>
    </vehicle>
    <vehicle id="327" depart="261.60">
        <route edges="gneE1 -gneE2"/>
    </vehicle>
    <vehicle id="328" depart="262.40">
        <route edges="gneE3 -gneE1"/>
    </vehicle>
    <vehicle id="329" depart="263.20">
        <route edges="gneE3 -gneE1"/>
    </vehicle>
    <vehicle id="331" depart="264.80">
        <route edges="gneE3 -gneE1"/>
    </vehicle>
    <vehicle id="333" depart="266.40">
        <route edges="gneE1 -gneE2"/>
    </vehicle>
    <vehicle id="334" depart="267.20">
        <route edges="gneE1 -gneE2"/>
    </vehicle>
    <vehicle id="335" depart="268.00">
        <route edges="gneE2 -gneE1"/>
    </vehicle>
    <vehicle id="336" depart="268.80">
        <route edges="gneE3 -gneE1"/>
    </vehicle>
    <vehicle id="337" depart="269.60">
        <route edges="gneE1 -gneE2"/>
    </vehicle>
    <vehicle id="338" depart="270.40">
        <route edges="gneE2 -gneE1"/>
    </vehicle>
    <vehicle id="339" depart="271.20">
        <route edges="gneE3 -gneE1"/>
    </vehicle>
    <vehicle id="341" depart="272.80">
        <route edges="gneE1 -gneE2"/>
    </vehicle>
    <vehicle id="342" depart="273.60">
        <route edges="gneE1 -gneE2"/>
    </vehicle>
    <vehicle id="345" depart="276.00">
        <route edges="gneE1 -gneE2"/>
    </vehicle>
    <vehicle id="346" depart="276.80">
        <route edges="gneE3 -gneE1"/>
    </vehicle>
    <vehicle id="347" depart="277.60">
        <route edges="gneE1 -gneE2"/>
    </vehicle>
    <vehicle id="348" depart="278.40">
        <route edges="gneE2 -gneE1"/>
    </vehicle>
    <vehicle id="349" depart="279.20">
        <route edges="gneE3 -gneE2"/>
    </vehicle>
    <vehicle id="350" depart="280.00">
        <route edges="gneE3 -gneE2"/>
    </vehicle>
    <vehicle id="351" depart="280.80">
        <route edges="gneE3 -gneE2"/>
    </vehicle>
    <vehicle id="352" depart="281.60">
        <route edges="gneE3 -gneE2"/>
    </vehicle>
    <vehicle id="354" depart="283.20">
        <route edges="gneE3 -gneE2"/>
    </vehicle>
    <vehicle id="355" depart="284.00">
        <route edges="gneE3 -gneE1"/>
    </vehicle>
    <vehicle id="357" depart="285.60">
        <route edges="gneE2 -gneE1"/>
    </vehicle>
    <vehicle id="359" depart="287.20">
        <route edges="gneE2 -gneE1"/>
    </vehicle>
    <vehicle id="361" depart="288.80">
        <route edges="gneE3 -gneE2"/>
    </vehicle>
    <vehicle id="363" depart="290.40">
        <route edges="gneE1 -gneE2"/>
    </vehicle>
    <vehicle id="364" depart="291.20">
        <route edges="gneE3 -gneE1"/>
    </vehicle>
    <vehicle id="365" depart="292.00">
        <route edges="gneE3 -gneE2"/>
    </vehicle>
    <vehicle id="366" depart="292.80">
        <route edges="gneE3 -gneE1"/>
    </vehicle>
    <vehicle id="367" depart="293.60">
        <route edges="gneE2 -gneE1"/>
    </vehicle>
    <vehicle id="368" depart="294.40">
        <route edges="gneE1 -gneE2"/>
    </vehicle>
    <vehicle id="370" depart="296.00">
        <route edges="gneE3 -gneE2"/>
    </vehicle>
    <vehicle id="371" depart="296.80">
        <route edges="gneE3 -gneE2"/>
    </vehicle>
    <vehicle id="373" depart="298.40">
        <route edges="gneE3 -gneE1"/>
    </vehicle>
    <vehicle id="374" depart="299.20">
        <route edges="gneE3 -gneE1"/>
    </vehicle>
    <vehicle id="376" depart="300.80">
        <route edges="gneE3 -gneE2"/>
    </vehicle>
    <vehicle id="377" depart="301.60">
        <route edges="gneE3 -gneE1"/>
    </vehicle>
    <vehicle id="378" depart="302.40">
        <route edges="gneE1 -gneE2"/>
    </vehicle>
    <vehicle id="381" depart="304.80">
        <route edges="gneE3 -gneE1"/>
    </vehicle>
    <vehicle id="383" depart="306.40">
        <route edges="gneE3 -gneE2"/>
    </vehicle>
    <vehicle id="384" depart="307.20">
        <route edges="gneE3 -gneE2"/>
    </vehicle>
    <vehicle id="387" depart="309.60">
        <route edges="gneE1 -gneE2"/>
    </vehicle>
    <vehicle id="388" depart="310.40">
        <route edges="gneE2 -gneE1"/>
    </vehicle>
    <vehicle id="390" depart="312.00">
        <route edges="gneE3 -gneE1"/>
    </vehicle>
    <vehicle id="391" depart="312.80">
        <route edges="gneE1 -gneE2"/>
    </vehicle>
    <vehicle id="393" depart="314.40">
        <route edges="gneE2 -gneE1"/>
    </vehicle>
    <vehicle id="394" depart="315.20">
        <route edges="gneE3 -gneE1"/>
    </vehicle>
    <vehicle id="395" depart="316.00">
        <route edges="gneE1 -gneE2"/>
    </vehicle>
    <vehicle id="397" depart="317.60">
        <route edges="gneE3 -gneE1"/>
    </vehicle>
    <vehicle id="398" depart="318.40">
        <route edges="gneE1 -gneE2"/>
    </vehicle>
    <vehicle id="403" depart="322.40">
        <route edges="gneE1 -gneE2"/>
    </vehicle>
    <vehicle id="404" depart="323.20">
        <route edges="gneE3 -gneE1"/>
    </vehicle>
    <vehicle id="406" depart="324.80">
        <route edges="gneE3 -gneE1"/>
    </vehicle>
    <vehicle id="408" depart="326.40">
        <route edges="gneE3 -gneE1"/>
    </vehicle>
    <vehicle id="409" depart="327.20">
        <route edges="gneE2 -gneE1"/>
    </vehicle>
    <vehicle id="411" depart="328.80">
        <route edges="gneE3 -gneE2"/>
    </vehicle>
    <vehicle id="412" depart="329.60">
        <route edges="gneE3 -gneE1"/>
    </vehicle>
    <vehicle id="413" depart="330.40">
        <route edges="gneE3 -gneE2"/>
    </vehicle>
    <vehicle id="414" depart="331.20">
        <route edges="gneE3 -gneE2"/>
    </vehicle>
    <vehicle id="416" depart="332.80">
        <route edges="gneE1 -gneE2"/>
    </vehicle>
    <vehicle id="417" depart="333.60">
        <route edges="gneE2 -gneE1"/>
    </vehicle>
    <vehicle id="418" depart="334.40">
        <route edges="gneE3 -gneE1"/>
    </vehicle>
    <vehicle id="419" depart="335.20">
        <route edges="gneE1 -gneE2"/>
    </vehicle>
    <vehicle id="421" depart="336.80">
        <route edges="gneE2 -gneE1"/>
    </vehicle>
    <vehicle id="422" depart="337.60">
        <route edges="gneE2 -gneE1"/>
    </vehicle>
    <vehicle id="425" depart="340.00">
        <route edges="gneE3 -gneE1"/>
    </vehicle>
    <vehicle id="429" depart="343.20">
        <route edges="gneE2 -gneE1"/>
    </vehicle>
    <vehicle id="430" depart="344.00">
        <route edges="gneE1 -gneE2"/>
    </vehicle>
    <vehicle id="431" depart="344.80">
        <route edges="gneE1 -gneE2"/>
    </vehicle>
    <vehicle id="433" depart="346.40">
        <route edges="gneE3 -gneE1"/>
    </vehicle>
    <vehicle id="435" depart="348.00">
        <route edges="gneE3 -gneE2"/>
    </vehicle>
    <vehicle id="436" depart="348.80">
        <route edges="gneE2 -gneE1"/>
    </vehicle>
    <vehicle id="437" depart="349.60">
        <route edges="gneE1 -gneE2"/>
    </vehicle>
    <vehicle id="438" depart="350.40">
        <route edges="gneE1 -gneE2"/>
    </vehicle>
    <vehicle id="440" depart="352.00">
        <route edges="gneE3 -gneE2"/>
    </vehicle>
    <vehicle id="441" depart="352.80">
        <route edges="gneE3 -gneE2"/>
    </vehicle>
    <vehicle id="442" depart="353.60">
        <route edges="gneE2 -gneE1"/>
    </vehicle>
    <vehicle id="444" depart="355.20">
        <route edges="gneE1 -gneE2"/>
    </vehicle>
    <vehicle id="445" depart="356.00">
        <route edges="gneE2 -gneE1"/>
    </vehicle>
    <vehicle id="449" depart="359.20">
        <route edges="gneE1 -gneE2"/>
    </vehicle>
    <vehicle id="450" depart="360.00">
        <route edges="gneE3 -gneE1"/>
    </vehicle>
    <vehicle id="451" depart="360.80">
        <route edges="gneE2 -gneE1"/>
    </vehicle>
    <vehicle id="452" depart="361.60">
        <route edges="gneE2 -gneE1"/>
    </vehicle>
    <vehicle id="453" depart="362.40">
        <route edges="gneE1 -gneE2"/>
    </vehicle>
    <vehicle id="455" depart="364.00">
        <route edges="gneE3 -gneE2"/>
    </vehicle>
    <vehicle id="456" depart="364.80">
        <route edges="gneE3 -gneE2"/>
    </vehicle>
    <vehicle id="457" depart="365.60">
        <route edges="gneE3 -gneE1"/>
    </vehicle>
    <vehicle id="458" depart="366.40">
        <route edges="gneE3 -gneE1"/>
    </vehicle>
    <vehicle id="459" depart="367.20">
        <route edges="gneE3 -gneE1"/>
    </vehicle>
    <vehicle id="462" depart="369.60">
        <route edges="gneE1 -gneE2"/>
    </vehicle>
    <vehicle id="463" depart="370.40">