<?xml version="1.0" encoding="UTF-8"?>

<!-- generated on Sun May  6 21:21:34 2018 by SUMO duarouter Version 0.30.0
<?xml version="1.0" encoding="UTF-8"?>

<configuration xmlns:xsi="http://www.w3.org/2001/XMLSchema-instance" xsi:noNamespaceSchemaLocation="http://sumo.dlr.de/xsd/duarouterConfiguration.xsd">

    <input>
        <net-file value="simple_T/simple_T.net.xml"/>
        <route-files value="trips.trips.xml"/>
    </input>

    <output>
        <output-file value="simple_T/route/simple_T-0.9-8.rou.xml"/>
    </output>

    <processing>
        <ignore-errors value="true"/>
    </processing>

    <time>
        <begin value="0.0"/>
        <end value="1000.0"/>
    </time>

    <report>
        <no-warnings value="true"/>
        <no-step-log value="true"/>
    </report>

</configuration>
-->

<routes xmlns:xsi="http://www.w3.org/2001/XMLSchema-instance" xsi:noNamespaceSchemaLocation="http://sumo.dlr.de/xsd/routes_file.xsd">
    <vehicle id="1" depart="0.90">
        <route edges="gneE1 -gneE2"/>
    </vehicle>
    <vehicle id="2" depart="1.80">
        <route edges="gneE3 -gneE2"/>
    </vehicle>
    <vehicle id="3" depart="2.70">
        <route edges="gneE1 -gneE2"/>
    </vehicle>
    <vehicle id="4" depart="3.60">
        <route edges="gneE3 -gneE1"/>
    </vehicle>
    <vehicle id="6" depart="5.40">
        <route edges="gneE1 -gneE2"/>
    </vehicle>
    <vehicle id="8" depart="7.20">
        <route edges="gneE1 -gneE2"/>
    </vehicle>
    <vehicle id="9" depart="8.10">
        <route edges="gneE3 -gneE2"/>
    </vehicle>
    <vehicle id="11" depart="9.90">
        <route edges="gneE3 -gneE2"/>
    </vehicle>
    <vehicle id="12" depart="10.80">
        <route edges="gneE1 -gneE2"/>
    </vehicle>
    <vehicle id="13" depart="11.70">
        <route edges="gneE3 -gneE1"/>
    </vehicle>
    <vehicle id="14" depart="12.60">
        <route edges="gneE3 -gneE2"/>
    </vehicle>
    <vehicle id="15" depart="13.50">
        <route edges="gneE2 -gneE1"/>
    </vehicle>
    <vehicle id="17" depart="15.30">
        <route edges="gneE2 -gneE1"/>
    </vehicle>
    <vehicle id="18" depart="16.20">
        <route edges="gneE3 -gneE2"/>
    </vehicle>
    <vehicle id="20" depart="18.00">
        <route edges="gneE1 -gneE2"/>
    </vehicle>
    <vehicle id="22" depart="19.80">
        <route edges="gneE1 -gneE2"/>
    </vehicle>
    <vehicle id="23" depart="20.70">
        <route edges="gneE3 -gneE2"/>
    </vehicle>
    <vehicle id="25" depart="22.50">
        <route edges="gneE3 -gneE2"/>
    </vehicle>
    <vehicle id="26" depart="23.40">
        <route edges="gneE3 -gneE2"/>
    </vehicle>
    <vehicle id="28" depart="25.20">
        <route edges="gneE3 -gneE1"/>
    </vehicle>
    <vehicle id="29" depart="26.10">
        <route edges="gneE3 -gneE2"/>
    </vehicle>
    <vehicle id="30" depart="27.00">
        <route edges="gneE2 -gneE1"/>
    </vehicle>
    <vehicle id="32" depart="28.80">
        <route edges="gneE3 -gneE2"/>
    </vehicle>
    <vehicle id="33" depart="29.70">
        <route edges="gneE3 -gneE2"/>
    </vehicle>
    <vehicle id="36" depart="32.40">
        <route edges="gneE1 -gneE2"/>
    </vehicle>
    <vehicle id="37" depart="33.30">
        <route edges="gneE3 -gneE2"/>
    </vehicle>
    <vehicle id="40" depart="36.00">
        <route edges="gneE3 -gneE1"/>
    </vehicle>
    <vehicle id="41" depart="36.90">
        <route edges="gneE3 -gneE1"/>
    </vehicle>
    <vehicle id="42" depart="37.80">
        <route edges="gneE3 -gneE2"/>
    </vehicle>
    <vehicle id="43" depart="38.70">
        <route edges="gneE3 -gneE2"/>
    </vehicle>
    <vehicle id="44" depart="39.60">
        <route edges="gneE3 -gneE2"/>
    </vehicle>
    <vehicle id="45" depart="40.50">
        <route edges="gneE3 -gneE1"/>
    </vehicle>
    <vehicle id="46" depart="41.40">
        <route edges="gneE2 -gneE1"/>
    </vehicle>
    <vehicle id="47" depart="42.30">
        <route edges="gneE3 -gneE1"/>
    </vehicle>
    <vehicle id="49" depart="44.10">
        <route edges="gneE3 -gneE1"/>
    </vehicle>
    <vehicle id="50" depart="45.00">
        <route edges="gneE3 -gneE2"/>
    </vehicle>
    <vehicle id="51" depart="45.90">
        <route edges="gneE3 -gneE1"/>
    </vehicle>
    <vehicle id="52" depart="46.80">
        <route edges="gneE1 -gneE2"/>
    </vehicle>
    <vehicle id="53" depart="47.70">
        <route edges="gneE3 -gneE2"/>
    </vehicle>
    <vehicle id="54" depart="48.60">
        <route edges="gneE3 -gneE1"/>
    </vehicle>
    <vehicle id="55" depart="49.50">
        <route edges="gneE3 -gneE2"/>
    </vehicle>
    <vehicle id="56" depart="50.40">
        <route edges="gneE2 -gneE1"/>
    </vehicle>
    <vehicle id="57" depart="51.30">
        <route edges="gneE3 -gneE1"/>
    </vehicle>
    <vehicle id="58" depart="52.20">
        <route edges="gneE2 -gneE1"/>
    </vehicle>
    <vehicle id="59" depart="53.10">
        <route edges="gneE2 -gneE1"/>
    </vehicle>
    <vehicle id="60" depart="54.00">
        <route edges="gneE2 -gneE1"/>
    </vehicle>
    <vehicle id="61" depart="54.90">
        <route edges="gneE3 -gneE1"/>
    </vehicle>
    <vehicle id="63" depart="56.70">
        <route edges="gneE3 -gneE1"/>
    </vehicle>
    <vehicle id="64" depart="57.60">
        <route edges="gneE3 -gneE2"/>
    </vehicle>
    <vehicle id="66" depart="59.40">
        <route edges="gneE1 -gneE2"/>
    </vehicle>
    <vehicle id="67" depart="60.30">
        <route edges="gneE3 -gneE2"/>
    </vehicle>
    <vehicle id="68" depart="61.20">
        <route edges="gneE3 -gneE2"/>
    </vehicle>
    <vehicle id="69" depart="62.10">
        <route edges="gneE1 -gneE2"/>
    </vehicle>
    <vehicle id="70" depart="63.00">
        <route edges="gneE3 -gneE2"/>
    </vehicle>
    <vehicle id="71" depart="63.90">
        <route edges="gneE1 -gneE2"/>
    </vehicle>
    <vehicle id="72" depart="64.80">
        <route edges="gneE3 -gneE1"/>
    </vehicle>
    <vehicle id="74" depart="66.60">
        <route edges="gneE2 -gneE1"/>
    </vehicle>
    <vehicle id="76" depart="68.40">
        <route edges="gneE3 -gneE2"/>
    </vehicle>
    <vehicle id="77" depart="69.30">
        <route edges="gneE1 -gneE2"/>
    </vehicle>
    <vehicle id="78" depart="70.20">
        <route edges="gneE1 -gneE2"/>
    </vehicle>
    <vehicle id="80" depart="72.00">
        <route edges="gneE3 -gneE2"/>
    </vehicle>
    <vehicle id="81" depart="72.90">
        <route edges="gneE3 -gneE2"/>
    </vehicle>
    <vehicle id="83" depart="74.70">
        <route edges="gneE3 -gneE1"/>
    </vehicle>
    <vehicle id="84" depart="75.60">
        <route edges="gneE3 -gneE2"/>
    </vehicle>
    <vehicle id="85" depart="76.50">
        <route edges="gneE1 -gneE2"/>
    </vehicle>
    <vehicle id="87" depart="78.30">
        <route edges="gneE3 -gneE2"/>
    </vehicle>
    <vehicle id="88" depart="79.20">
        <route edges="gneE1 -gneE2"/>
    </vehicle>
    <vehicle id="89" depart="80.10">
        <route edges="gneE3 -gneE2"/>
    </vehicle>
    <vehicle id="91" depart="81.90">
        <route edges="gneE3 -gneE2"/>
    </vehicle>
    <vehicle id="92" depart="82.80">
        <route edges="gneE3 -gneE1"/>
    </vehicle>
    <vehicle id="93" depart="83.70">
        <route edges="gneE2 -gneE1"/>
    </vehicle>
    <vehicle id="94" depart="84.60">
        <route edges="gneE1 -gneE2"/>
    </vehicle>
    <vehicle id="95" depart="85.50">
        <route edges="gneE3 -gneE1"/>
    </vehicle>
    <vehicle id="96" depart="86.40">
        <route edges="gneE1 -gneE2"/>
    </vehicle>
    <vehicle id="97" depart="87.30">
        <route edges="gneE2 -gneE1"/>
    </vehicle>
    <vehicle id="98" depart="88.20">
        <route edges="gneE3 -gneE1"/>
    </vehicle>
    <vehicle id="100" depart="90.00">
        <route edges="gneE1 -gneE2"/>
    </vehicle>
    <vehicle id="101" depart="90.90">
        <route edges="gneE3 -gneE1"/>
    </vehicle>
    <vehicle id="102" depart="91.80">
        <route edges="gneE3 -gneE2"/>
    </vehicle>
    <vehicle id="104" depart="93.60">
        <route edges="gneE3 -gneE1"/>
    </vehicle>
    <vehicle id="107" depart="96.30">
        <route edges="gneE1 -gneE2"/>
    </vehicle>
    <vehicle id="109" depart="98.10">
        <route edges="gneE3 -gneE1"/>
    </vehicle>
    <vehicle id="111" depart="99.90">
        <route edges="gneE1 -gneE2"/>
    </vehicle>
    <vehicle id="112" depart="100.80">
        <route edges="gneE3 -gneE1"/>
    </vehicle>
    <vehicle id="114" depart="102.60">
        <route edges="gneE2 -gneE1"/>
    </vehicle>
    <vehicle id="115" depart="103.50">
        <route edges="gneE3 -gneE1"/>
    </vehicle>
    <vehicle id="117" depart="105.30">
        <route edges="gneE1 -gneE2"/>
    </vehicle>
    <vehicle id="118" depart="106.20">
        <route edges="gneE1 -gneE2"/>
    </vehicle>
    <vehicle id="119" depart="107.10">
        <route edges="gneE1 -gneE2"/>
    </vehicle>
    <vehicle id="120" depart="108.00">
        <route edges="gneE2 -gneE1"/>
    </vehicle>
    <vehicle id="125" depart="112.50">
        <route edges="gneE3 -gneE1"/>
    </vehicle>
    <vehicle id="126" depart="113.40">
        <route edges="gneE3 -gneE1"/>
    </vehicle>
    <vehicle id="128" depart="115.20">
        <route edges="gneE1 -gneE2"/>
    </vehicle>
    <vehicle id="129" depart="116.10">
        <route edges="gneE3 -gneE1"/>
    </vehicle>
    <vehicle id="130" depart="117.00">
        <route edges="gneE2 -gneE1"/>
    </vehicle>
    <vehicle id="131" depart="117.90">
        <route edges="gneE2 -gneE1"/>
    </vehicle>
    <vehicle id="132" depart="118.80">
        <route edges="gneE2 -gneE1"/>
    </vehicle>
    <vehicle id="133" depart="119.70">
        <route edges="gneE3 -gneE1"/>
    </vehicle>
    <vehicle id="134" depart="120.60">
        <route edges="gneE3 -gneE1"/>
    </vehicle>
    <vehicle id="136" depart="122.40">
        <route edges="gneE3 -gneE1"/>
    </vehicle>
    <vehicle id="137" depart="123.30">
        <route edges="gneE3 -gneE2"/>
    </vehicle>
    <vehicle id="139" depart="125.10">
        <route edges="gneE3 -gneE1"/>
    </vehicle>
    <vehicle id="141" depart="126.90">
        <route edges="gneE3 -gneE2"/>
    </vehicle>
    <vehicle id="142" depart="127.80">
        <route edges="gneE1 -gneE2"/>
    </vehicle>
    <vehicle id="144" depart="129.60">
        <route edges="gneE2 -gneE1"/>
    </vehicle>
    <vehicle id="145" depart="130.50">
        <route edges="gneE3 -gneE2"/>
    </vehicle>
    <vehicle id="146" depart="131.40">
        <route edges="gneE2 -gneE1"/>
    </vehicle>
    <vehicle id="147" depart="132.30">
        <route edges="gneE3 -gneE2"/>
    </vehicle>
    <vehicle id="148" depart="133.20">
        <route edges="gneE3 -gneE2"/>
    </vehicle>
    <vehicle id="150" depart="135.00">
        <route edges="gneE3 -gneE2"/>
    </vehicle>
    <vehicle id="151" depart="135.90">
        <route edges="gneE3 -gneE1"/>
    </vehicle>
    <vehicle id="153" depart="137.70">
        <route edges="gneE1 -gneE2"/>
    </vehicle>
    <vehicle id="155" depart="139.50">
        <route edges="gneE2 -gneE1"/>
    </vehicle>
    <vehicle id="156" depart="140.40">
        <route edges="gneE1 -gneE2"/>
    </vehicle>
    <vehicle id="157" depart="141.30">
        <route edges="gneE2 -gneE1"/>
    </vehicle>
    <vehicle id="160" depart="144.00">
        <route edges="gneE2 -gneE1"/>
    </vehicle>
    <vehicle id="161" depart="144.90">
        <route edges="gneE1 -gneE2"/>
    </vehicle>
    <vehicle id="162" depart="145.80">
        <route edges="gneE3 -gneE2"/>
    </vehicle>
    <vehicle id="164" depart="147.60">
        <route edges="gneE1 -gneE2"/>
    </vehicle>
    <vehicle id="165" depart="148.50">
        <route edges="gneE2 -gneE1"/>
    </vehicle>
    <vehicle id="166" depart="149.40">
        <route edges="gneE1 -gneE2"/>
    </vehicle>
    <vehicle id="167" depart="150.30">
        <route edges="gneE1 -gneE2"/>
    </vehicle>
    <vehicle id="168" depart="151.20">
        <route edges="gneE3 -gneE2"/>
    </vehicle>
    <vehicle id="170" depart="153.00">
        <route edges="gneE3 -gneE2"/>
    </vehicle>
    <vehicle id="171" depart="153.90">
        <route edges="gneE1 -gneE2"/>
    </vehicle>
    <vehicle id="173" depart="155.70">
        <route edges="gneE3 -gneE2"/>
    </vehicle>
    <vehicle id="174" depart="156.60">
        <route edges="gneE3 -gneE2"/>
    </vehicle>
    <vehicle id="175" depart="157.50">
        <route edges="gneE3 -gneE2"/>
    </vehicle>
    <vehicle id="176" depart="158.40">
        <route edges="gneE2 -gneE1"/>
    </vehicle>
    <vehicle id="177" depart="159.30">
        <route edges="gneE3 -gneE1"/>
    </vehicle>
    <vehicle id="178" depart="160.20">
        <route edges="gneE2 -gneE1"/>
    </vehicle>
    <vehicle id="179" depart="161.10">
        <route edges="gneE2 -gneE1"/>
    </vehicle>
    <vehicle id="182" depart="163.80">
        <route edges="gneE3 -gneE1"/>
    </vehicle>
    <vehicle id="183" depart="164.70">
        <route edges="gneE1 -gneE2"/>
    </vehicle>
    <vehicle id="184" depart="165.60">
        <route edges="gneE2 -gneE1"/>
    </vehicle>
    <vehicle id="185" depart="166.50">
        <route edges="gneE3 -gneE1"/>
    </vehicle>
    <vehicle id="186" depart="167.40">
        <route edges="gneE3 -gneE2"/>
    </vehicle>
    <vehicle id="191" depart="171.90">
        <route edges="gneE3 -gneE2"/>
    </vehicle>
    <vehicle id="194" depart="174.60">
        <route edges="gneE1 -gneE2"/>
    </vehicle>
    <vehicle id="195" depart="175.50">
        <route edges="gneE2 -gneE1"/>
    </vehicle>
    <vehicle id="196" depart="176.40">
        <route edges="gneE3 -gneE2"/>
    </vehicle>
    <vehicle id="199" depart="179.10">
        <route edges="gneE3 -gneE1"/>
    </vehicle>
    <vehicle id="201" depart="180.90">
        <route edges="gneE1 -gneE2"/>
    </vehicle>
    <vehicle id="203" depart="182.70">
        <route edges="gneE1 -gneE2"/>
    </vehicle>
    <vehicle id="204" depart="183.60">
        <route edges="gneE3 -gneE1"/>
    </vehicle>
    <vehicle id="205" depart="184.50">
        <route edges="gneE3 -gneE2"/>
    </vehicle>
    <vehicle id="206" depart="185.40">
        <route edges="gneE2 -gneE1"/>
    </vehicle>
    <vehicle id="207" depart="186.30">
        <route edges="gneE3 -gneE1"/>
    </vehicle>
    <vehicle id="208" depart="187.20">
        <route edges="gneE3 -gneE2"/>
    </vehicle>
    <vehicle id="209" depart="188.10">
        <route edges="gneE2 -gneE1"/>
    </vehicle>
    <vehicle id="210" depart="189.00">
        <route edges="gneE1 -gneE2"/>
    </vehicle>
    <vehicle id="216" depart="194.40">
        <route edges="gneE3 -gneE2"/>
    </vehicle>
    <vehicle id="218" depart="196.20">
        <route edges="gneE1 -gneE2"/>
    </vehicle>
    <vehicle id="219" depart="197.10">
        <route edges="gneE2 -gneE1"/>
    </vehicle>
    <vehicle id="221" depart="198.90">
        <route edges="gneE2 -gneE1"/>
    </vehicle>
    <vehicle id="223" depart="200.70">
        <route edges="gneE3 -gneE2"/>
    </vehicle>
    <vehicle id="225" depart="202.50">
        <route edges="gneE3 -gneE1"/>
    </vehicle>
    <vehicle id="226" depart="203.40">
        <route edges="gneE3 -gneE1"/>
    </vehicle>
    <vehicle id="227" depart="204.30">
        <route edges="gneE3 -gneE2"/>
    </vehicle>
    <vehicle id="228" depart="205.20">
        <route edges="gneE2 -gneE1"/>
    </vehicle>
    <vehicle id="229" depart="206.10">
        <route edges="gneE3 -gneE2"/>
    </vehicle>
    <vehicle id="230" depart="207.00">
        <route edges="gneE3 -gneE1"/>
    </vehicle>
    <vehicle id="231" depart="207.90">
        <route edges="gneE2 -gneE1"/>
    </vehicle>
    <vehicle id="232" depart="208.80">
        <route edges="gneE3 -gneE1"/>
    </vehicle>
    <vehicle id="234" depart="210.60">
        <route edges="gneE2 -gneE1"/>
    </vehicle>
    <vehicle id="236" depart="212.40">
        <route edges="gneE3 -gneE1"/>
    </vehicle>
    <vehicle id="237" depart="213.30">
        <route edges="gneE2 -gneE1"/>
    </vehicle>
    <vehicle id="239" depart="215.10">
        <route edges="gneE1 -gneE2"/>
    </vehicle>
    <vehicle id="241" depart="216.90">
        <route edges="gneE3 -gneE2"/>
    </vehicle>
    <vehicle id="242" depart="217.80">
        <route edges="gneE3 -gneE1"/>
    </vehicle>
    <vehicle id="245" depart="220.50">
        <route edges="gneE3 -gneE2"/>
    </vehicle>
    <vehicle id="246" depart="221.40">
        <route edges="gneE1 -gneE2"/>
    </vehicle>
    <vehicle id="248" depart="223.20">
        <route edges="gneE3 -gneE1"/>
    </vehicle>
    <vehicle id="249" depart="224.10">
        <route edges="gneE1 -gneE2"/>
    </vehicle>
    <vehicle id="250" depart="225.00">
        <route edges="gneE3 -gneE2"/>
    </vehicle>
    <vehicle id="251" depart="225.90">
        <route edges="gneE3 -gneE2"/>
    </vehicle>
    <vehicle id="252" depart="226.80">
        <route edges="gneE1 -gneE2"/>
    </vehicle>
    <vehicle id="253" depart="227.70">
        <route edges="gneE2 -gneE1"/>
    </vehicle>
    <vehicle id="254" depart="228.60">
        <route edges="gneE3 -gneE2"/>
    </vehicle>
    <vehicle id="256" depart="230.40">
        <route edges="gneE1 -gneE2"/>
    </vehicle>
    <vehicle id="257" depart="231.30">
        <route edges="gneE3 -gneE1"/>
    </vehicle>
    <vehicle id="258" depart="232.20">
        <route edges="gneE3 -gneE1"/>
    </vehicle>
    <vehicle id="259" depart="233.10">
        <route edges="gneE3 -gneE2"/>
    </vehicle>
    <vehicle id="263" depart="236.70">
        <route edges="gneE3 -gneE1"/>
    </vehicle>
    <vehicle id="264" depart="237.60">
        <route edges="gneE3 -gneE1"/>
    </vehicle>
    <vehicle id="265" depart="238.50">
        <route edges="gneE3 -gneE1"/>
    </vehicle>
    <vehicle id="267" depart="240.30">
        <route edges="gneE3 -gneE2"/>
    </vehicle>
    <vehicle id="270" depart="243.00">
        <route edges="gneE1 -gneE2"/>
    </vehicle>
    <vehicle id="272" depart="244.80">
        <route edges="gneE1 -gneE2"/>
    </vehicle>
    <vehicle id="275" depart="247.50">
        <route edges="gneE1 -gneE2"/>
    </vehicle>
    <vehicle id="276" depart="248.40">
        <route edges="gneE2 -gneE1"/>
    </vehicle>
    <vehicle id="277" depart="249.30">
        <route edges="gneE3 -gneE1"/>
    </vehicle>
    <vehicle id="278" depart="250.20">
        <route edges="gneE1 -gneE2"/>
    </vehicle>
    <vehicle id="279" depart="251.10">
        <route edges="gneE3 -gneE1"/>
    </vehicle>
    <vehicle id="280" depart="252.00">
        <route edges="gneE3 -gneE1"/>
    </vehicle>
    <vehicle id="283" depart="254.70">
        <route edges="gneE1 -gneE2"/>
    </vehicle>
    <vehicle id="284" depart="255.60">
        <route edges="gneE1 -gneE2"/>
    </vehicle>
    <vehicle id="285" depart="256.50">
        <route edges="gneE3 -gneE1"/>
    </vehicle>
    <vehicle id="287" depart="258.30">
        <route edges="gneE3 -gneE1"/>
    </vehicle>
    <vehicle id="288" depart="259.20">
        <route edges="gneE3 -gneE1"/>
    </vehicle>
    <vehicle id="289" depart="260.10">
        <route edges="gneE1 -gneE2"/>
    </vehicle>
    <vehicle id="290" depart="261.00">
        <route edges="gneE3 -gneE2"/>
    </vehicle>
    <vehicle id="291" depart="261.90">
        <route edges="gneE2 -gneE1"/>
    </vehicle>
    <vehicle id="293" depart="263.70">
        <route edges="gneE3 -gneE1"/>
    </vehicle>
    <vehicle id="295" depart="265.50">
        <route edges="gneE1 -gneE2"/>
    </vehicle>
    <vehicle id="297" depart="267.30">
        <route edges="gneE2 -gneE1"/>
    </vehicle>
    <vehicle id="298" depart="268.20">
        <route edges="gneE3 -gneE1"/>
    </vehicle>
    <vehicle id="299" depart="269.10">
        <route edges="gneE1 -gneE2"/>
    </vehicle>
    <vehicle id="300" depart="270.00">
        <route edges="gneE3 -gneE2"/>
    </vehicle>
    <vehicle id="301" depart="270.90">
        <route edges="gneE3 -gneE2"/>
    </vehicle>
    <vehicle id="303" depart="272.70">
        <route edges="gneE3 -gneE1"/>
    </vehicle>
    <vehicle id="304" depart="273.60">
        <route edges="gneE3 -gneE1"/>
    </vehicle>
    <vehicle id="305" depart="274.50">
        <route edges="gneE1 -gneE2"/>
    </vehicle>
    <vehicle id="306" depart="275.40">
        <route edges="gneE1 -gneE2"/>
    </vehicle>
    <vehicle id="307" depart="276.30">
        <route edges="gneE3 -gneE1"/>
    </vehicle>
    <vehicle id="309" depart="278.10">
        <route edges="gneE1 -gneE2"/>
    </vehicle>
    <vehicle id="310" depart="279.00">
        <route edges="gneE3 -gneE2"/>
    </vehicle>
    <vehicle id="311" depart="279.90">
        <route edges="gneE2 -gneE1"/>
    </vehicle>
    <vehicle id="313" depart="281.70">
        <route edges="gneE3 -gneE2"/>
    </vehicle>
    <vehicle id="315" depart="283.50">
        <route edges="gneE1 -gneE2"/>
    </vehicle>
    <vehicle id="316" depart="284.40">
        <route edges="gneE2 -gneE1"/>
    </vehicle>
    <vehicle id="318" depart="286.20">
        <route edges="gneE3 -gneE1"/>
    </vehicle>
    <vehicle id="319" depart="287.10">
        <route edges="gneE3 -gneE2"/>
    </vehicle>
    <vehicle id="320" depart="288.00">
        <route edges="gneE2 -gneE1"/>
    </vehicle>
    <vehicle id="323" depart="290.70">
        <route edges="gneE2 -gneE1"/>
    </vehicle>
    <vehicle id="324" depart="291.60">
        <route edges="gneE3 -gneE1"/>
    </vehicle>
    <vehicle id="332" depart="298.80">
        <route edges="gneE1 -gneE2"/>
    </vehicle>
    <vehicle id="333" depart="299.70">
        <route edges="gneE2 -gneE1"/>
    </vehicle>
    <vehicle id="334" depart="300.60">
        <route edges="gneE2 -gneE1"/>
    </vehicle>
    <vehicle id="335" depart="301.50">
        <route edges="gneE3 -gneE1"/>
    </vehicle>
    <vehicle id="338" depart="304.20">
        <route edges="gneE3 -gneE2"/>
    </vehicle>
    <vehicle id="339" depart="305.10">
        <route edges="gneE2 -gneE1"/>
    </vehicle>
    <vehicle id="340" depart="306.00">
        <route edges="gneE3 -gneE2"/>
    </vehicle>
    <vehicle id="342" depart="307.80">
        <route edges="gneE2 -gneE1"/>
    </vehicle>
    <vehicle id="343" depart="308.70">
        <route edges="gneE3 -gneE1"/>
    </vehicle>
    <vehicle id="344" depart="309.60">
        <route edges="gneE1 -gneE2"/>
    </vehicle>
    <vehicle id="345" depart="310.50">
        <route edges="gneE2 -gneE1"/>
    </vehicle>
    <vehicle id="347" depart="312.30">
        <route edges="gneE3 -gneE1"/>
    </vehicle>
    <vehicle id="348" depart="313.20">
        <route edges="gneE1 -gneE2"/>
    </vehicle>
    <vehicle id="349" depart="314.10">
        <route edges="gneE3 -gneE1"/>
    </vehicle>
    <vehicle id="352" depart="316.80">
        <route edges="gneE3 -gneE1"/>
    </vehicle>
    <vehicle id="353" depart="317.70">
        <route edges="gneE3 -gneE1"/>
    </vehicle>
    <vehicle id="357" depart="321.30">
        <route edges="gneE3 -gneE1"/>
    </vehicle>
    <vehicle id="359" depart="323.10">
        <route edges="gneE2 -gneE1"/>
    </vehicle>
    <vehicle id="361" depart="324.90">
        <route edges="gneE3 -gneE2"/>
    </vehicle>
    <vehicle id="365" depart="328.50">
        <route edges="gneE3 -gneE2"/>
    </vehicle>
    <vehicle id="366" depart="329.40">
        <route edges="gneE3 -gneE1"/>
    </vehicle>
    <vehicle id="367" depart="330.30">
        <route edges="gneE1 -gneE2"/>
    </vehicle>
    <vehicle id="368" depart="331.20">
        <route edges="gneE3 -gneE1"/>
    </vehicle>
    <vehicle id="370" depart="333.00">
        <route edges="gneE3 -gneE2"/>
    </vehicle>
    <vehicle id="372" depart="334.80">
        <route edges="gneE1 -gneE2"/>
    </vehicle>
    <vehicle id="374" depart="336.60">
        <route edges="gneE1 -gneE2"/>
    </vehicle>
    <vehicle id="375" depart="337.50">
        <route edges="gneE1 -gneE2"/>
    </vehicle>
    <vehicle id="376" depart="338.40">
        <route edges="gneE1 -gneE2"/>
    </vehicle>
    <vehicle id="377" depart="339.30">
        <route edges="gneE1 -gneE2"/>
    </vehicle>
    <vehicle id="381" depart="342.90">
        <route edges="gneE2 -gneE1"/>
    </vehicle>
    <vehicle id="382" depart="343.80">
        <route edges="gneE3 -gneE1"/>
    </vehicle>
    <vehicle id="385" depart="346.50">
        <route edges="gneE2 -gneE1"/>
    </vehicle>
    <vehicle id="386" depart="347.40">
        <route edges="gneE1 -gneE2"/>
    </vehicle>
    <vehicle id="389" depart="350.10">
        <route edges="gneE3 -gneE2"/>
    </vehicle>
    <vehicle id="390" depart="351.00">
        <route edges="gneE2 -gneE1"/>
    </vehicle>
    <vehicle id="391" depart="351.90">
        <route edges="gneE1 -gneE2"/>
    </vehicle>
    <vehicle id="392" depart="352.80">
        <route edges="gneE1 -gneE2"/>
    </vehicle>
    <vehicle id="393" depart="353.70">
        <route edges="gneE3 -gneE2"/>
    </vehicle>
    <vehicle id="397" depart="357.30">
        <route edges="gneE3 -gneE1"/>
    </vehicle>
    <vehicle id="398" depart="358.20">
        <route edges="gneE3 -gneE2"/>
    </vehicle>
    <vehicle id="399" depart="359.10">
        <route edges="gneE1 -gneE2"/>
    </vehicle>
    <vehicle id="401" depart="360.90">
        <route edges="gneE2 -gneE1"/>
    </vehicle>
    <vehicle id="402" depart="361.80">
        <route edges="gneE2 -gneE1"/>
    </vehicle>
    <vehicle id="403" depart="362.70">
        <route edges="gneE1 -gneE2"/>
    </vehicle>
    <vehicle id="404" depart="363.60">
        <route edges="gneE2 -gneE1"/>
    </vehicle>
    <vehicle id="406" depart="365.40">
        <route edges="gneE1 -gneE2"/>
    </vehicle>
    <vehicle id="409" depart="368.10">
        <route edges="gneE3 -gneE1"/>
    </vehicle>
    <vehicle id="410" depart="369.00">
        <route edges="gneE3 -gneE1"/>
    </vehicle>
    <vehicle id="413" depart="371.70">
        <route edges="gneE3 -gneE2"/>
    </vehicle>
    <vehicle id="414" depart="372.60">
        <route edges="gneE3 -gneE1"/>
    </vehicle>
    <vehicle id="416" depart="374.40">
        <route edges="gneE2 -gneE1"/>
    </vehicle>
    <vehicle id="419" depart="377.10">
        <route edges="gneE2 -gneE1"/>
    </vehicle>
    <vehicle id="421" depart="378.90">
        <route edges="gneE1 -gneE2"/>
    </vehicle>
    <vehicle id="422" depart="379.80">
        <route edges="gneE3 -gneE2"/>
    </vehicle>
    <vehicle id="423" depart="380.70">
        <route edges="gneE3 -gneE1"/>
    </vehicle>
    <vehicle id="424" depart="381.60">
        <route edges="gneE3 -gneE2"/>
    </vehicle>
    <vehicle id="425" depart="382.50">
        <route edges="gneE3 -gneE1"/>
    </vehicle>
    <vehicle id="427" depart="384.30">
        <route edges="gneE2 -gneE1"/>
    </vehicle>
    <vehicle id="428" depart="385.20">
        <route edges="gneE2 -gneE1"/>
    </vehicle>
    <vehicle id="429" depart="386.10">
        <route edges="gneE3 -gneE2"/>
    </vehicle>
    <vehicle id="430" depart="387.00">
        <route edges="gneE3 -gneE2"/>
    </vehicle>
    <vehicle id="431" depart="387.90">
        <route edges="gneE1 -gneE2"/>
    </vehicle>
    <vehicle id="432" depart="388.80">
        <route edges="gneE1 -gneE2"/>
    </vehicle>
    <vehicle id="433" depart="389.70">
        <route edges="gneE2 -gneE1"/>
    </vehicle>
    <vehicle id="434" depart="390.60">
        <route edges="gneE3 -gneE1"/>
    </vehicle>
    <vehicle id="435" depart="391.50">
        <route edges="gneE3 -gneE1"/>
    </vehicle>
    <vehicle id="438" depart="394.20">
        <route edges="gneE2 -gneE1"/>
    </vehicle>
    <vehicle id="439" depart="395.10">
        <route edges="gneE3 -gneE2"/>
    </vehicle>
    <vehicle id="440" depart="396.00">
        <route edges="gneE3 -gneE2"/>
    </vehicle>
    <vehicle id="441" depart="396.90">
        <route edges="gneE2 -gneE1"/>
    </vehicle>
    <vehicle id="442" depart="397.80">
        <route edges="gneE2 -gneE1"/>
    </vehicle>
    <vehicle id="443" depart="398.70">
        <route edges="gneE1 -gneE2"/>
    </vehicle>
    <vehicle id="444" depart="399.60">
        <route edges="gneE2 -gneE1"/>
    </vehicle>
    <vehicle id="445" depart="400.50">
        <route edges="gneE1 -gneE2"/>
    </vehicle>
    <vehicle id="450" depart="405.00">
        <route edges="gneE1 -gneE2"/>
    </vehicle>
    <vehicle id="451" depart="405.90">
        <route edges="gneE2 -gneE1"/>
    </vehicle>
    <vehicle id="452" depart="406.80">
        <route edges="gneE1 -gneE2"/>
    </vehicle>
    <vehicle id="453" depart="407.70">
        <route edges="gneE3 -gneE2"/>
    </vehicle>
    <vehicle id="456" depart="410.40">
        <route edges="gneE2 -gneE1"/>
    </vehicle>
    <vehicle id="458" depart="412.20">
        <route edges="gneE2 -gneE1"/>
    </vehicle>
    <vehicle id="459" depart="413.10">
        <route edges="gneE3 -gneE2"/>
    </vehicle>
    <vehicle id="460" depart="414.00">
        <route edges="gneE3 -gneE1"/>
    </vehicle>
    <vehicle id="461" depart="414.90">
        <route edges="gneE1 -gneE2"/>
    </vehicle>
    <vehicle id="464" depart="417.60">
        <route edges="gneE3 -gneE2"/>
    </vehicle>
    <vehicle id="467" depart="420.30">
        <route edges="gneE2 -gneE1"/>
    </vehicle>
    <vehicle id="468" depart="421.20">
        <route edges="gneE1 -gneE2"/>
    </vehicle>
    <vehicle id="471" depart="423.90">
        <route edges="gneE3 -gneE2"/>
    </vehicle>
    <vehicle id="472" depart="424.80">
        <route edges="gneE2 -gneE1"/>
    </vehicle>
    <vehicle id="473" depart="425.70">
        <route edges="gneE3 -gneE2"/>
    </vehicle>
    <vehicle id="474" depart="426.60">
        <route edges="gneE3 -gneE1"/>
    </vehicle>
    <vehicle id="476" depart="428.40">
        <route edges="gneE1 -gneE2"/>
    </vehicle>
    <vehicle id="477" depart="429.30">