<?xml version="1.0" encoding="UTF-8"?>

<!-- generated on Sun May  6 21:12:22 2018 by SUMO duarouter Version 0.30.0
<?xml version="1.0" encoding="UTF-8"?>

<configuration xmlns:xsi="http://www.w3.org/2001/XMLSchema-instance" xsi:noNamespaceSchemaLocation="http://sumo.dlr.de/xsd/duarouterConfiguration.xsd">

    <input>
        <net-file value="simple_T/simple_T.net.xml"/>
        <route-files value="trips.trips.xml"/>
    </input>

    <output>
        <output-file value="simple_T/route/simple_T-1.1-6.rou.xml"/>
    </output>

    <processing>
        <ignore-errors value="true"/>
    </processing>

    <time>
        <begin value="0.0"/>
        <end value="1000.0"/>
    </time>

    <report>
        <no-warnings value="true"/>
        <no-step-log value="true"/>
    </report>

</configuration>
-->

<routes xmlns:xsi="http://www.w3.org/2001/XMLSchema-instance" xsi:noNamespaceSchemaLocation="http://sumo.dlr.de/xsd/routes_file.xsd">
    <vehicle id="0" depart="0.00">
        <route edges="gneE3 -gneE1"/>
    </vehicle>
    <vehicle id="3" depart="3.30">
        <route edges="gneE1 -gneE2"/>
    </vehicle>
    <vehicle id="4" depart="4.40">
        <route edges="gneE3 -gneE1"/>
    </vehicle>
    <vehicle id="5" depart="5.50">
        <route edges="gneE2 -gneE1"/>
    </vehicle>
    <vehicle id="6" depart="6.60">
        <route edges="gneE2 -gneE1"/>
    </vehicle>
    <vehicle id="7" depart="7.70">
        <route edges="gneE3 -gneE1"/>
    </vehicle>
    <vehicle id="8" depart="8.80">
        <route edges="gneE2 -gneE1"/>
    </vehicle>
    <vehicle id="10" depart="11.00">
        <route edges="gneE2 -gneE1"/>
    </vehicle>
    <vehicle id="12" depart="13.20">
        <route edges="gneE2 -gneE1"/>
    </vehicle>
    <vehicle id="13" depart="14.30">
        <route edges="gneE3 -gneE1"/>
    </vehicle>
    <vehicle id="15" depart="16.50">
        <route edges="gneE2 -gneE1"/>
    </vehicle>
    <vehicle id="16" depart="17.60">
        <route edges="gneE2 -gneE1"/>
    </vehicle>
    <vehicle id="17" depart="18.70">
        <route edges="gneE3 -gneE1"/>
    </vehicle>
    <vehicle id="18" depart="19.80">
        <route edges="gneE1 -gneE2"/>
    </vehicle>
    <vehicle id="19" depart="20.90">
        <route edges="gneE3 -gneE1"/>
    </vehicle>
    <vehicle id="20" depart="22.00">
        <route edges="gneE1 -gneE2"/>
    </vehicle>
    <vehicle id="21" depart="23.10">
        <route edges="gneE2 -gneE1"/>
    </vehicle>
    <vehicle id="23" depart="25.30">
        <route edges="gneE3 -gneE2"/>
    </vehicle>
    <vehicle id="24" depart="26.40">
        <route edges="gneE3 -gneE1"/>
    </vehicle>
    <vehicle id="26" depart="28.60">
        <route edges="gneE3 -gneE1"/>
    </vehicle>
    <vehicle id="27" depart="29.70">
        <route edges="gneE3 -gneE1"/>
    </vehicle>
    <vehicle id="28" depart="30.80">
        <route edges="gneE1 -gneE2"/>
    </vehicle>
    <vehicle id="30" depart="33.00">
        <route edges="gneE1 -gneE2"/>
    </vehicle>
    <vehicle id="31" depart="34.10">
        <route edges="gneE3 -gneE2"/>
    </vehicle>
    <vehicle id="32" depart="35.20">
        <route edges="gneE1 -gneE2"/>
    </vehicle>
    <vehicle id="33" depart="36.30">
        <route edges="gneE3 -gneE2"/>
    </vehicle>
    <vehicle id="34" depart="37.40">
        <route edges="gneE3 -gneE1"/>
    </vehicle>
    <vehicle id="36" depart="39.60">
        <route edges="gneE1 -gneE2"/>
    </vehicle>
    <vehicle id="39" depart="42.90">
        <route edges="gneE2 -gneE1"/>
    </vehicle>
    <vehicle id="40" depart="44.00">
        <route edges="gneE2 -gneE1"/>
    </vehicle>
    <vehicle id="44" depart="48.40">
        <route edges="gneE2 -gneE1"/>
    </vehicle>
    <vehicle id="45" depart="49.50">
        <route edges="gneE3 -gneE1"/>
    </vehicle>
    <vehicle id="46" depart="50.60">
        <route edges="gneE3 -gneE2"/>
    </vehicle>
    <vehicle id="47" depart="51.70">
        <route edges="gneE3 -gneE1"/>
    </vehicle>
    <vehicle id="50" depart="55.00">
        <route edges="gneE2 -gneE1"/>
    </vehicle>
    <vehicle id="51" depart="56.10">
        <route edges="gneE3 -gneE1"/>
    </vehicle>
    <vehicle id="52" depart="57.20">
        <route edges="gneE3 -gneE2"/>
    </vehicle>
    <vehicle id="53" depart="58.30">
        <route edges="gneE3 -gneE2"/>
    </vehicle>
    <vehicle id="55" depart="60.50">
        <route edges="gneE1 -gneE2"/>
    </vehicle>
    <vehicle id="56" depart="61.60">
        <route edges="gneE3 -gneE2"/>
    </vehicle>
    <vehicle id="57" depart="62.70">
        <route edges="gneE2 -gneE1"/>
    </vehicle>
    <vehicle id="58" depart="63.80">
        <route edges="gneE3 -gneE2"/>
    </vehicle>
    <vehicle id="59" depart="64.90">
        <route edges="gneE3 -gneE2"/>
    </vehicle>
    <vehicle id="60" depart="66.00">
        <route edges="gneE3 -gneE2"/>
    </vehicle>
    <vehicle id="62" depart="68.20">
        <route edges="gneE1 -gneE2"/>
    </vehicle>
    <vehicle id="63" depart="69.30">
        <route edges="gneE1 -gneE2"/>
    </vehicle>
    <vehicle id="64" depart="70.40">
        <route edges="gneE1 -gneE2"/>
    </vehicle>
    <vehicle id="65" depart="71.50">
        <route edges="gneE3 -gneE1"/>
    </vehicle>
    <vehicle id="67" depart="73.70">
        <route edges="gneE1 -gneE2"/>
    </vehicle>
    <vehicle id="68" depart="74.80">
        <route edges="gneE2 -gneE1"/>
    </vehicle>
    <vehicle id="69" depart="75.90">
        <route edges="gneE1 -gneE2"/>
    </vehicle>
    <vehicle id="72" depart="79.20">
        <route edges="gneE3 -gneE2"/>
    </vehicle>
    <vehicle id="73" depart="80.30">
        <route edges="gneE2 -gneE1"/>
    </vehicle>
    <vehicle id="74" depart="81.40">
        <route edges="gneE1 -gneE2"/>
    </vehicle>
    <vehicle id="75" depart="82.50">
        <route edges="gneE1 -gneE2"/>
    </vehicle>
    <vehicle id="76" depart="83.60">
        <route edges="gneE3 -gneE1"/>
    </vehicle>
    <vehicle id="77" depart="84.70">
        <route edges="gneE2 -gneE1"/>
    </vehicle>
    <vehicle id="78" depart="85.80">
        <route edges="gneE3 -gneE1"/>
    </vehicle>
    <vehicle id="79" depart="86.90">
        <route edges="gneE2 -gneE1"/>
    </vehicle>
    <vehicle id="81" depart="89.10">
        <route edges="gneE1 -gneE2"/>
    </vehicle>
    <vehicle id="82" depart="90.20">
        <route edges="gneE3 -gneE1"/>
    </vehicle>
    <vehicle id="83" depart="91.30">
        <route edges="gneE1 -gneE2"/>
    </vehicle>
    <vehicle id="84" depart="92.40">
        <route edges="gneE3 -gneE1"/>
    </vehicle>
    <vehicle id="86" depart="94.60">
        <route edges="gneE3 -gneE2"/>
    </vehicle>
    <vehicle id="88" depart="96.80">
        <route edges="gneE1 -gneE2"/>
    </vehicle>
    <vehicle id="89" depart="97.90">
        <route edges="gneE1 -gneE2"/>
    </vehicle>
    <vehicle id="91" depart="100.10">
        <route edges="gneE2 -gneE1"/>
    </vehicle>
    <vehicle id="92" depart="101.20">
        <route edges="gneE3 -gneE2"/>
    </vehicle>
    <vehicle id="93" depart="102.30">
        <route edges="gneE3 -gneE2"/>
    </vehicle>
    <vehicle id="95" depart="104.50">
        <route edges="gneE2 -gneE1"/>
    </vehicle>
    <vehicle id="96" depart="105.60">
        <route edges="gneE3 -gneE2"/>
    </vehicle>
    <vehicle id="97" depart="106.70">
        <route edges="gneE2 -gneE1"/>
    </vehicle>
    <vehicle id="98" depart="107.80">
        <route edges="gneE3 -gneE2"/>
    </vehicle>
    <vehicle id="99" depart="108.90">
        <route edges="gneE3 -gneE2"/>
    </vehicle>
    <vehicle id="100" depart="110.00">
        <route edges="gneE3 -gneE1"/>
    </vehicle>
    <vehicle id="109" depart="119.90">
        <route edges="gneE3 -gneE1"/>
    </vehicle>
    <vehicle id="111" depart="122.10">
        <route edges="gneE1 -gneE2"/>
    </vehicle>
    <vehicle id="113" depart="124.30">
        <route edges="gneE3 -gneE1"/>
    </vehicle>
    <vehicle id="114" depart="125.40">
        <route edges="gneE3 -gneE2"/>
    </vehicle>
    <vehicle id="115" depart="126.50">
        <route edges="gneE2 -gneE1"/>
    </vehicle>
    <vehicle id="116" depart="127.60">
        <route edges="gneE2 -gneE1"/>
    </vehicle>
    <vehicle id="117" depart="128.70">
        <route edges="gneE3 -gneE2"/>
    </vehicle>
    <vehicle id="119" depart="130.90">
        <route edges="gneE1 -gneE2"/>
    </vehicle>
    <vehicle id="120" depart="132.00">
        <route edges="gneE3 -gneE2"/>
    </vehicle>
    <vehicle id="123" depart="135.30">
        <route edges="gneE1 -gneE2"/>
    </vehicle>
    <vehicle id="124" depart="136.40">
        <route edges="gneE3 -gneE1"/>
    </vehicle>
    <vehicle id="130" depart="143.00">
        <route edges="gneE2 -gneE1"/>
    </vehicle>
    <vehicle id="132" depart="145.20">
        <route edges="gneE3 -gneE1"/>
    </vehicle>
    <vehicle id="133" depart="146.30">
        <route edges="gneE1 -gneE2"/>
    </vehicle>
    <vehicle id="139" depart="152.90">
        <route edges="gneE2 -gneE1"/>
    </vehicle>
    <vehicle id="140" depart="154.00">
        <route edges="gneE2 -gneE1"/>
    </vehicle>
    <vehicle id="141" depart="155.10">
        <route edges="gneE1 -gneE2"/>
    </vehicle>
    <vehicle id="143" depart="157.30">
        <route edges="gneE3 -gneE1"/>
    </vehicle>
    <vehicle id="144" depart="158.40">
        <route edges="gneE1 -gneE2"/>
    </vehicle>
    <vehicle id="151" depart="166.10">
        <route edges="gneE1 -gneE2"/>
    </vehicle>
    <vehicle id="152" depart="167.20">
        <route edges="gneE3 -gneE1"/>
    </vehicle>
    <vehicle id="153" depart="168.30">
        <route edges="gneE1 -gneE2"/>
    </vehicle>
    <vehicle id="154" depart="169.40">
        <route edges="gneE2 -gneE1"/>
    </vehicle>
    <vehicle id="155" depart="170.50">
        <route edges="gneE3 -gneE2"/>
    </vehicle>
    <vehicle id="156" depart="171.60">
        <route edges="gneE3 -gneE2"/>
    </vehicle>
    <vehicle id="157" depart="172.70">
        <route edges="gneE1 -gneE2"/>
    </vehicle>
    <vehicle id="158" depart="173.80">
        <route edges="gneE3 -gneE2"/>
    </vehicle>
    <vehicle id="159" depart="174.90">
        <route edges="gneE1 -gneE2"/>
    </vehicle>
    <vehicle id="160" depart="176.00">
        <route edges="gneE3 -gneE1"/>
    </vehicle>
    <vehicle id="161" depart="177.10">
        <route edges="gneE3 -gneE2"/>
    </vehicle>
    <vehicle id="162" depart="178.20">
        <route edges="gneE2 -gneE1"/>
    </vehicle>
    <vehicle id="163" depart="179.30">
        <route edges="gneE3 -gneE1"/>
    </vehicle>
    <vehicle id="164" depart="180.40">
        <route edges="gneE1 -gneE2"/>
    </vehicle>
    <vehicle id="167" depart="183.70">
        <route edges="gneE1 -gneE2"/>
    </vehicle>
    <vehicle id="168" depart="184.80">
        <route edges="gneE3 -gneE1"/>
    </vehicle>
    <vehicle id="169" depart="185.90">
        <route edges="gneE3 -gneE1"/>
    </vehicle>
    <vehicle id="170" depart="187.00">
        <route edges="gneE2 -gneE1"/>
    </vehicle>
    <vehicle id="173" depart="190.30">
        <route edges="gneE3 -gneE2"/>
    </vehicle>
    <vehicle id="174" depart="191.40">
        <route edges="gneE2 -gneE1"/>
    </vehicle>
    <vehicle id="175" depart="192.50">
        <route edges="gneE3 -gneE1"/>
    </vehicle>
    <vehicle id="176" depart="193.60">
        <route edges="gneE3 -gneE1"/>
    </vehicle>
    <vehicle id="177" depart="194.70">
        <route edges="gneE1 -gneE2"/>
    </vehicle>
    <vehicle id="180" depart="198.00">
        <route edges="gneE3 -gneE1"/>
    </vehicle>
    <vehicle id="184" depart="202.40">
        <route edges="gneE2 -gneE1"/>
    </vehicle>
    <vehicle id="186" depart="204.60">
        <route edges="gneE1 -gneE2"/>
    </vehicle>
    <vehicle id="187" depart="205.70">
        <route edges="gneE3 -gneE2"/>
    </vehicle>
    <vehicle id="188" depart="206.80">
        <route edges="gneE3 -gneE2"/>
    </vehicle>
    <vehicle id="189" depart="207.90">
        <route edges="gneE2 -gneE1"/>
    </vehicle>
    <vehicle id="190" depart="209.00">
        <route edges="gneE3 -gneE2"/>
    </vehicle>
    <vehicle id="192" depart="211.20">
        <route edges="gneE2 -gneE1"/>
    </vehicle>
    <vehicle id="193" depart="212.30">
        <route edges="gneE2 -gneE1"/>
    </vehicle>
    <vehicle id="194" depart="213.40">
        <route edges="gneE2 -gneE1"/>
    </vehicle>
    <vehicle id="195" depart="214.50">
        <route edges="gneE3 -gneE2"/>
    </vehicle>
    <vehicle id="196" depart="215.60">
        <route edges="gneE2 -gneE1"/>
    </vehicle>
    <vehicle id="198" depart="217.80">
        <route edges="gneE3 -gneE1"/>
    </vehicle>
    <vehicle id="199" depart="218.90">
        <route edges="gneE2 -gneE1"/>
    </vehicle>
    <vehicle id="202" depart="222.20">
        <route edges="gneE3 -gneE1"/>
    </vehicle>
    <vehicle id="203" depart="223.30">
        <route edges="gneE3 -gneE2"/>
    </vehicle>
    <vehicle id="204" depart="224.40">
        <route edges="gneE3 -gneE1"/>
    </vehicle>
    <vehicle id="205" depart="225.50">
        <route edges="gneE3 -gneE1"/>
    </vehicle>
    <vehicle id="207" depart="227.70">
        <route edges="gneE3 -gneE2"/>
    </vehicle>
    <vehicle id="208" depart="228.80">
        <route edges="gneE1 -gneE2"/>
    </vehicle>
    <vehicle id="211" depart="232.10">
        <route edges="gneE3 -gneE2"/>
    </vehicle>
    <vehicle id="212" depart="233.20">
        <route edges="gneE2 -gneE1"/>
    </vehicle>
    <vehicle id="213" depart="234.30">
        <route edges="gneE3 -gneE1"/>
    </vehicle>
    <vehicle id="214" depart="235.40">
        <route edges="gneE1 -gneE2"/>
    </vehicle>
    <vehicle id="215" depart="236.50">
        <route edges="gneE3 -gneE2"/>
    </vehicle>
    <vehicle id="216" depart="237.60">
        <route edges="gneE3 -gneE1"/>
    </vehicle>
    <vehicle id="217" depart="238.70">
        <route edges="gneE2 -gneE1"/>
    </vehicle>
    <vehicle id="221" depart="243.10">
        <route edges="gneE2 -gneE1"/>
    </vehicle>
    <vehicle id="222" depart="244.20">
        <route edges="gneE1 -gneE2"/>
    </vehicle>
    <vehicle id="224" depart="246.40">
        <route edges="gneE2 -gneE1"/>
    </vehicle>
    <vehicle id="227" depart="249.70">
        <route edges="gneE1 -gneE2"/>
    </vehicle>
    <vehicle id="229" depart="251.90">
        <route edges="gneE2 -gneE1"/>
    </vehicle>
    <vehicle id="230" depart="253.00">
        <route edges="gneE3 -gneE2"/>
    </vehicle>
    <vehicle id="231" depart="254.10">
        <route edges="gneE2 -gneE1"/>
    </vehicle>
    <vehicle id="232" depart="255.20">
        <route edges="gneE3 -gneE1"/>
    </vehicle>
    <vehicle id="233" depart="256.30">
        <route edges="gneE2 -gneE1"/>
    </vehicle>
    <vehicle id="234" depart="257.40">
        <route edges="gneE1 -gneE2"/>
    </vehicle>
    <vehicle id="235" depart="258.50">
        <route edges="gneE3 -gneE1"/>
    </vehicle>
    <vehicle id="237" depart="260.70">
        <route edges="gneE3 -gneE1"/>
    </vehicle>
    <vehicle id="238" depart="261.80">
        <route edges="gneE3 -gneE2"/>
    </vehicle>
    <vehicle id="240" depart="264.00">
        <route edges="gneE2 -gneE1"/>
    </vehicle>
    <vehicle id="243" depart="267.30">
        <route edges="gneE2 -gneE1"/>
    </vehicle>
    <vehicle id="244" depart="268.40">
        <route edges="gneE3 -gneE2"/>
    </vehicle>
    <vehicle id="246" depart="270.60">
        <route edges="gneE1 -gneE2"/>
    </vehicle>
    <vehicle id="247" depart="271.70">
        <route edges="gneE3 -gneE2"/>
    </vehicle>
    <vehicle id="249" depart="273.90">
        <route edges="gneE2 -gneE1"/>
    </vehicle>
    <vehicle id="250" depart="275.00">
        <route edges="gneE1 -gneE2"/>
    </vehicle>
    <vehicle id="251" depart="276.10">
        <route edges="gneE1 -gneE2"/>
    </vehicle>
    <vehicle id="253" depart="278.30">
        <route edges="gneE3 -gneE2"/>
    </vehicle>
    <vehicle id="254" depart="279.40">
        <route edges="gneE2 -gneE1"/>
    </vehicle>
    <vehicle id="255" depart="280.50">
        <route edges="gneE2 -gneE1"/>
    </vehicle>
    <vehicle id="257" depart="282.70">
        <route edges="gneE3 -gneE2"/>
    </vehicle>
    <vehicle id="258" depart="283.80">
        <route edges="gneE1 -gneE2"/>
    </vehicle>
    <vehicle id="259" depart="284.90">
        <route edges="gneE3 -gneE1"/>
    </vehicle>
    <vehicle id="260" depart="286.00">
        <route edges="gneE3 -gneE1"/>
    </vehicle>
    <vehicle id="261" depart="287.10">
        <route edges="gneE2 -gneE1"/>
    </vehicle>
    <vehicle id="263" depart="289.30">
        <route edges="gneE3 -gneE2"/>
    </vehicle>
    <vehicle id="264" depart="290.40">
        <route edges="gneE3 -gneE1"/>
    </vehicle>
    <vehicle id="265" depart="291.50">
        <route edges="gneE2 -gneE1"/>
    </vehicle>
    <vehicle id="266" depart="292.60">
        <route edges="gneE3 -gneE2"/>
    </vehicle>
    <vehicle id="270" depart="297.00">
        <route edges="gneE3 -gneE1"/>
    </vehicle>
    <vehicle id="272" depart="299.20">
        <route edges="gneE2 -gneE1"/>
    </vehicle>
    <vehicle id="273" depart="300.30">
        <route edges="gneE3 -gneE1"/>
    </vehicle>
    <vehicle id="274" depart="301.40">
        <route edges="gneE3 -gneE2"/>
    </vehicle>
    <vehicle id="275" depart="302.50">
        <route edges="gneE3 -gneE1"/>
    </vehicle>
    <vehicle id="276" depart="303.60">
        <route edges="gneE2 -gneE1"/>
    </vehicle>
    <vehicle id="277" depart="304.70">
        <route edges="gneE2 -gneE1"/>
    </vehicle>
    <vehicle id="279" depart="306.90">
        <route edges="gneE2 -gneE1"/>
    </vehicle>
    <vehicle id="280" depart="308.00">
        <route edges="gneE1 -gneE2"/>
    </vehicle>
    <vehicle id="281" depart="309.10">
        <route edges="gneE3 -gneE2"/>
    </vehicle>
    <vehicle id="283" depart="311.30">
        <route edges="gneE2 -gneE1"/>
    </vehicle>
    <vehicle id="284" depart="312.40">
        <route edges="gneE3 -gneE1"/>
    </vehicle>
    <vehicle id="285" depart="313.50">
        <route edges="gneE3 -gneE1"/>
    </vehicle>
    <vehicle id="287" depart="315.70">
        <route edges="gneE3 -gneE2"/>
    </vehicle>
    <vehicle id="288" depart="316.80">
        <route edges="gneE3 -gneE1"/>
    </vehicle>
    <vehicle id="289" depart="317.90">
        <route edges="gneE2 -gneE1"/>
    </vehicle>
    <vehicle id="292" depart="321.20">
        <route edges="gneE3 -gneE2"/>
    </vehicle>
    <vehicle id="293" depart="322.30">
        <route edges="gneE3 -gneE1"/>
    </vehicle>
    <vehicle id="294" depart="323.40">
        <route edges="gneE2 -gneE1"/>
    </vehicle>
    <vehicle id="296" depart="325.60">
        <route edges="gneE3 -gneE1"/>
    </vehicle>
    <vehicle id="297" depart="326.70">
        <route edges="gneE3 -gneE1"/>
    </vehicle>
    <vehicle id="299" depart="328.90">
        <route edges="gneE1 -gneE2"/>
    </vehicle>
    <vehicle id="300" depart="330.00">
        <route edges="gneE1 -gneE2"/>
    </vehicle>
    <vehicle id="305" depart="335.50">
        <route edges="gneE2 -gneE1"/>
    </vehicle>
    <vehicle id="306" depart="336.60">
        <route edges="gneE3 -gneE2"/>
    </vehicle>
    <vehicle id="309" depart="339.90">
        <route edges="gneE2 -gneE1"/>
    </vehicle>
    <vehicle id="310" depart="341.00">
        <route edges="gneE3 -gneE1"/>
    </vehicle>
    <vehicle id="311" depart="342.10">
        <route edges="gneE3 -gneE2"/>
    </vehicle>
    <vehicle id="315" depart="346.50">
        <route edges="gneE2 -gneE1"/>
    </vehicle>
    <vehicle id="317" depart="348.70">
        <route edges="gneE3 -gneE2"/>
    </vehicle>
    <vehicle id="318" depart="349.80">
        <route edges="gneE3 -gneE2"/>
    </vehicle>
    <vehicle id="319" depart="350.90">
        <route edges="gneE3 -gneE1"/>
    </vehicle>
    <vehicle id="320" depart="352.00">
        <route edges="gneE2 -gneE1"/>
    </vehicle>
    <vehicle id="321" depart="353.10">
        <route edges="gneE2 -gneE1"/>
    </vehicle>
    <vehicle id="322" depart="354.20">
        <route edges="gneE3 -gneE2"/>
    </vehicle>
    <vehicle id="323" depart="355.30">
        <route edges="gneE1 -gneE2"/>
    </vehicle>
    <vehicle id="325" depart="357.50">
        <route edges="gneE3 -gneE2"/>
    </vehicle>
    <vehicle id="326" depart="358.60">
        <route edges="gneE3 -gneE1"/>
    </vehicle>
    <vehicle id="329" depart="361.90">
        <route edges="gneE1 -gneE2"/>
    </vehicle>
    <vehicle id="330" depart="363.00">
        <route edges="gneE3 -gneE1"/>
    </vehicle>
    <vehicle id="331" depart="364.10">
        <route edges="gneE2 -gneE1"/>
    </vehicle>
    <vehicle id="332" depart="365.20">
        <route edges="gneE3 -gneE1"/>
    </vehicle>
    <vehicle id="333" depart="366.30">
        <route edges="gneE3 -gneE1"/>
    </vehicle>
    <vehicle id="334" depart="367.40">
        <route edges="gneE3 -gneE2"/>
    </vehicle>
    <vehicle id="335" depart="368.50">
        <route edges="gneE3 -gneE1"/>
    </vehicle>
    <vehicle id="336" depart="369.60">
        <route edges="gneE2 -gneE1"/>
    </vehicle>
    <vehicle id="337" depart="370.70">
        <route edges="gneE3 -gneE2"/>
    </vehicle>
    <vehicle id="338" depart="371.80">
        <route edges="gneE3 -gneE2"/>
    </vehicle>
    <vehicle id="339" depart="372.90">
        <route edges="gneE3 -gneE1"/>
    </vehicle>
    <vehicle id="340" depart="374.00">
        <route edges="gneE2 -gneE1"/>
    </vehicle>
    <vehicle id="342" depart="376.20">
        <route edges="gneE2 -gneE1"/>
    </vehicle>
    <vehicle id="343" depart="377.30">
        <route edges="gneE1 -gneE2"/>
    </vehicle>
    <vehicle id="345" depart="379.50">
        <route edges="gneE2 -gneE1"/>
    </vehicle>
    <vehicle id="346" depart="380.60">
        <route edges="gneE3 -gneE1"/>
    </vehicle>
    <vehicle id="347" depart="381.70">
        <route edges="gneE3 -gneE1"/>
    </vehicle>
    <vehicle id="348" depart="382.80">
        <route edges="gneE1 -gneE2"/>
    </vehicle>
    <vehicle id="349" depart="383.90">
        <route edges="gneE1 -gneE2"/>
    </vehicle>
    <vehicle id="350" depart="385.00">
        <route edges="gneE2 -gneE1"/>
    </vehicle>
    <vehicle id="351" depart="386.10">
        <route edges="gneE3 -gneE1"/>
    </vehicle>
    <vehicle id="353" depart="388.30">
        <route edges="gneE1 -gneE2"/>
    </vehicle>
    <vehicle id="355" depart="390.50">
        <route edges="gneE2 -gneE1"/>
    </vehicle>
    <vehicle id="356" depart="391.60">
        <route edges="gneE2 -gneE1"/>
    </vehicle>
    <vehicle id="359" depart="394.90">
        <route edges="gneE2 -gneE1"/>
    </vehicle>
    <vehicle id="360" depart="396.00">
        <route edges="gneE1 -gneE2"/>
    </vehicle>
    <vehicle id="361" depart="397.10">
        <route edges="gneE3 -gneE1"/>
    </vehicle>
    <vehicle id="363" depart="399.30">
        <route edges="gneE1 -gneE2"/>
    </vehicle>
    <vehicle id="365" depart="401.50">
        <route edges="gneE3 -gneE1"/>
    </vehicle>
    <vehicle id="366" depart="402.60">
        <route edges="gneE2 -gneE1"/>
    </vehicle>
    <vehicle id="367" depart="403.70">
        <route edges="gneE3 -gneE2"/>
    </vehicle>
    <vehicle id="368" depart="404.80">
        <route edges="gneE2 -gneE1"/>
    </vehicle>
    <vehicle id="369" depart="405.90">
        <route edges="gneE3 -gneE2"/>
    </vehicle>
    <vehicle id="371" depart="408.10">
        <route edges="gneE1 -gneE2"/>
    </vehicle>
    <vehicle id="372" depart="409.20">
        <route edges="gneE2 -gneE1"/>
    </vehicle>
    <vehicle id="376" depart="413.60">
        <route edges="gneE3 -gneE1"/>
    </vehicle>
    <vehicle id="379" depart="416.90">
        <route edges="gneE3 -gneE2"/>
    </vehicle>
    <vehicle id="380" depart="418.00">
        <route edges="gneE3 -gneE2"/>
    </vehicle>
    <vehicle id="382" depart="420.20">
        <route edges="gneE3 -gneE2"/>
    </vehicle>
    <vehicle id="384" depart="422.40">
        <route edges="gneE3 -gneE1"/>
    </vehicle>
    <vehicle id="385" depart="423.50">
        <route edges="gneE2 -gneE1"/>
    </vehicle>
    <vehicle id="387" depart="425.70">
        <route edges="gneE3 -gneE1"/>
    </vehicle>
    <vehicle id="388" depart="426.80">
        <route edges="gneE3 -gneE2"/>
    </vehicle>
    <vehicle id="389" depart="427.90">
        <route edges="gneE1 -gneE2"/>
    </vehicle>
    <vehicle id="391" depart="430.10">
        <route edges="gneE3 -gneE2"/>
    </vehicle>
    <vehicle id="395" depart="434.50">
        <route edges="gneE3 -gneE1"/>
    </vehicle>
    <vehicle id="396" depart="435.60">
        <route edges="gneE3 -gneE1"/>
    </vehicle>
    <vehicle id="397" depart="436.70">
        <route edges="gneE3 -gneE1"/>
    </vehicle>
    <vehicle id="399" depart="438.90">
        <route edges="gneE3 -gneE1"/>
    </vehicle>
    <vehicle id="400" depart="440.00">
        <route edges="gneE3 -gneE1"/>
    </vehicle>
    <vehicle id="401" depart="441.10">
        <route edges="gneE2 -gneE1"/>
    </vehicle>
    <vehicle id="402" depart="442.20">
        <route edges="gneE1 -gneE2"/>
    </vehicle>
    <vehicle id="404" depart="444.40">
        <route edges="gneE3 -gneE1"/>
    </vehicle>
    <vehicle id="405" depart="445.50">
        <route edges="gneE1 -gneE2"/>
    </vehicle>
    <vehicle id="406" depart="446.60">
        <route edges="gneE2 -gneE1"/>
    </vehicle>
    <vehicle id="407" depart="447.70">
        <route edges="gneE2 -gneE1"/>
    </vehicle>
    <vehicle id="408" depart="448.80">
        <route edges="gneE3 -gneE2"/>
    </vehicle>
    <vehicle id="411" depart="452.10">
        <route edges="gneE1 -gneE2"/>
    </vehicle>
    <vehicle id="414" depart="455.40">
        <route edges="gneE3 -gneE2"/>
    </vehicle>
    <vehicle id="415" depart="456.50">
        <route edges="gneE1 -gneE2"/>
    </vehicle>
    <vehicle id="420" depart="462.00">
        <route edges="gneE3 -gneE2"/>
    </vehicle>
    <vehicle id="421" depart="463.10">
        <route edges="gneE3 -gneE2"/>
    </vehicle>
    <vehicle id="425" depart="467.50">
        <route edges="gneE3 -gneE2"/>
    </vehicle>
    <vehicle id="426" depart="468.60">
        <route edges="gneE3 -gneE2"/>
    </vehicle>
    <vehicle id="427" depart="469.70">
        <route edges="gneE3 -gneE2"/>
    </vehicle>
    <vehicle id="429" depart="471.90">
        <route edges="gneE3 -gneE1"/>
    </vehicle>
    <vehicle id="432" depart="475.20">
        <route edges="gneE3 -gneE1"/>
    </vehicle>
    <vehicle id="433" depart="476.30">
        <route edges="gneE2 -gneE1"/>
    </vehicle>
    <vehicle id="436" depart="479.60">
        <route edges="gneE1 -gneE2"/>
    </vehicle>
    <vehicle id="439" depart="482.90">
        <route edges="gneE3 -gneE1"/>
    </vehicle>
    <vehicle id="440" depart="484.00">
        <route edges="gneE3 -gneE1"/>
    </vehicle>
    <vehicle id="441" depart="485.10">
        <route edges="gneE2 -gneE1"/>
    </vehicle>
    <vehicle id="443" depart="487.30">
        <route edges="gneE3 -gneE1"/>
    </vehicle>
    <vehicle id="445" depart="489.50">
        <route edges="gneE2 -gneE1"/>
    </vehicle>
    <vehicle id="446" depart="490.60">
        <route edges="gneE2 -gneE1"/>
    </vehicle>
    <vehicle id="448" depart="492.80">
        <route edges="gneE3 -gneE1"/>
    </vehicle>
    <vehicle id="450" depart="495.00">
        <route edges="gneE3 -gneE1"/>
    </vehicle>
    <vehicle id="451" depart="496.10">
        <route edges="gneE3 -gneE2"/>
    </vehicle>
    <vehicle id="453" depart="498.30">
        <route edges="gneE2 -gneE1"/>
    </vehicle>
    <vehicle id="454" depart="499.40">
        <route edges="gneE2 -gneE1"/>
    </vehicle>
    <vehicle id="456" depart="501.60">
        <route edges="gneE2 -gneE1"/>
    </vehicle>
    <vehicle id="457" depart="502.70">
        <route edges="gneE2 -gneE1"/>
    </vehicle>
    <vehicle id="458" depart="503.80">
        <route edges="gneE3 -gneE2"/>
    </vehicle>
    <vehicle id="459" depart="504.90">
        <route edges="gneE2 -gneE1"/>
    </vehicle>
    <vehicle id="460" depart="506.00">
        <route edges="gneE2 -gneE1"/>
    </vehicle>
    <vehicle id="461" depart="507.10">
        <route edges="gneE1 -gneE2"/>
    </vehicle>
    <vehicle id="462" depart="508.20">
        <route edges="gneE3 -gneE1"/>
    </vehicle>
    <vehicle id="463" depart="509.30">
        <route edges="gneE3 -gneE2"/>
    </vehicle>
    <vehicle id="465" depart="511.50">
        <route edges="gneE3 -gneE1"/>
    </vehicle>
    <vehicle id="468" depart="514.80">
        <route edges="gneE2 -gneE1"/>
    </vehicle>
    <vehicle id="469" depart="515.90">
        <route edges="gneE2 -gneE1"/>
    </vehicle>
    <vehicle id="471" depart="518.10">
        <route edges="gneE1 -gneE2"/>
    </vehicle>
    <vehicle id="474" depart="521.40">
        <route edges="gneE1 -gneE2"/>
    </vehicle>
    <vehicle id="476" depart="523.60">
        <route edges="gneE2 -gneE1"/>
    </vehicle>
    <vehicle id="477" depart="524.70">
        <route edges="gneE3 -gneE2"/>
    </vehicle>
    <vehicle id="478" depart="525.80">
        <route edges="gneE1 -gneE2"/>
    </vehicle>
    <vehicle id="480" depart="528.00">
        <route edges="gneE2 -gneE1"/>
    </vehicle>
    <vehicle id="481" depart="529.10">
        <route edges="gneE3 -gneE2"/>
    </vehicle>
    <vehicle id="482" depart="530.20">
        <route edges="gneE3 -gneE2"/>
    </vehicle>
    <vehicle id="483" depart="531.30">
        <route edges="gneE2 -gneE1"/>
    </vehicle>
    <vehicle id="484" depart="532.40">
        <route edges="gneE3 -gneE2"/>
    </vehicle>
    <vehicle id="485" depart="533.50">
        <route edges="gneE3 -gneE2"/>
    </vehicle>
    <vehicle id="486" depart="534.60">