<?xml version="1.0" encoding="UTF-8"?>

<!-- generated on Sun May  6 21:10:22 2018 by SUMO duarouter Version 0.30.0
<?xml version="1.0" encoding="UTF-8"?>

<configuration xmlns:xsi="http://www.w3.org/2001/XMLSchema-instance" xsi:noNamespaceSchemaLocation="http://sumo.dlr.de/xsd/duarouterConfiguration.xsd">

    <input>
        <net-file value="simple_T/simple_T.net.xml"/>
        <route-files value="trips.trips.xml"/>
    </input>

    <output>
        <output-file value="simple_T/route/simple_T-1.2-0.rou.xml"/>
    </output>

    <processing>
        <ignore-errors value="true"/>
    </processing>

    <time>
        <begin value="0.0"/>
        <end value="1000.0"/>
    </time>

    <report>
        <no-warnings value="true"/>
        <no-step-log value="true"/>
    </report>

</configuration>
-->

<routes xmlns:xsi="http://www.w3.org/2001/XMLSchema-instance" xsi:noNamespaceSchemaLocation="http://sumo.dlr.de/xsd/routes_file.xsd">
    <vehicle id="0" depart="0.00">
        <route edges="gneE3 -gneE2"/>
    </vehicle>
    <vehicle id="1" depart="1.20">
        <route edges="gneE3 -gneE1"/>
    </vehicle>
    <vehicle id="2" depart="2.40">
        <route edges="gneE2 -gneE1"/>
    </vehicle>
    <vehicle id="4" depart="4.80">
        <route edges="gneE3 -gneE1"/>
    </vehicle>
    <vehicle id="5" depart="6.00">
        <route edges="gneE1 -gneE2"/>
    </vehicle>
    <vehicle id="6" depart="7.20">
        <route edges="gneE3 -gneE1"/>
    </vehicle>
    <vehicle id="7" depart="8.40">
        <route edges="gneE3 -gneE1"/>
    </vehicle>
    <vehicle id="10" depart="12.00">
        <route edges="gneE3 -gneE1"/>
    </vehicle>
    <vehicle id="11" depart="13.20">
        <route edges="gneE1 -gneE2"/>
    </vehicle>
    <vehicle id="14" depart="16.80">
        <route edges="gneE1 -gneE2"/>
    </vehicle>
    <vehicle id="15" depart="18.00">
        <route edges="gneE3 -gneE1"/>
    </vehicle>
    <vehicle id="16" depart="19.20">
        <route edges="gneE1 -gneE2"/>
    </vehicle>
    <vehicle id="17" depart="20.40">
        <route edges="gneE3 -gneE2"/>
    </vehicle>
    <vehicle id="18" depart="21.60">
        <route edges="gneE1 -gneE2"/>
    </vehicle>
    <vehicle id="19" depart="22.80">
        <route edges="gneE3 -gneE1"/>
    </vehicle>
    <vehicle id="22" depart="26.40">
        <route edges="gneE3 -gneE2"/>
    </vehicle>
    <vehicle id="23" depart="27.60">
        <route edges="gneE3 -gneE1"/>
    </vehicle>
    <vehicle id="25" depart="30.00">
        <route edges="gneE1 -gneE2"/>
    </vehicle>
    <vehicle id="27" depart="32.40">
        <route edges="gneE3 -gneE2"/>
    </vehicle>
    <vehicle id="28" depart="33.60">
        <route edges="gneE2 -gneE1"/>
    </vehicle>
    <vehicle id="29" depart="34.80">
        <route edges="gneE1 -gneE2"/>
    </vehicle>
    <vehicle id="30" depart="36.00">
        <route edges="gneE1 -gneE2"/>
    </vehicle>
    <vehicle id="32" depart="38.40">
        <route edges="gneE2 -gneE1"/>
    </vehicle>
    <vehicle id="34" depart="40.80">
        <route edges="gneE3 -gneE2"/>
    </vehicle>
    <vehicle id="36" depart="43.20">
        <route edges="gneE2 -gneE1"/>
    </vehicle>
    <vehicle id="37" depart="44.40">
        <route edges="gneE3 -gneE2"/>
    </vehicle>
    <vehicle id="38" depart="45.60">
        <route edges="gneE2 -gneE1"/>
    </vehicle>
    <vehicle id="39" depart="46.80">
        <route edges="gneE2 -gneE1"/>
    </vehicle>
    <vehicle id="41" depart="49.20">
        <route edges="gneE3 -gneE1"/>
    </vehicle>
    <vehicle id="42" depart="50.40">
        <route edges="gneE2 -gneE1"/>
    </vehicle>
    <vehicle id="44" depart="52.80">
        <route edges="gneE1 -gneE2"/>
    </vehicle>
    <vehicle id="45" depart="54.00">
        <route edges="gneE2 -gneE1"/>
    </vehicle>
    <vehicle id="46" depart="55.20">
        <route edges="gneE1 -gneE2"/>
    </vehicle>
    <vehicle id="47" depart="56.40">
        <route edges="gneE2 -gneE1"/>
    </vehicle>
    <vehicle id="48" depart="57.60">
        <route edges="gneE3 -gneE1"/>
    </vehicle>
    <vehicle id="49" depart="58.80">
        <route edges="gneE2 -gneE1"/>
    </vehicle>
    <vehicle id="52" depart="62.40">
        <route edges="gneE3 -gneE2"/>
    </vehicle>
    <vehicle id="53" depart="63.60">
        <route edges="gneE3 -gneE1"/>
    </vehicle>
    <vehicle id="55" depart="66.00">
        <route edges="gneE2 -gneE1"/>
    </vehicle>
    <vehicle id="56" depart="67.20">
        <route edges="gneE3 -gneE2"/>
    </vehicle>
    <vehicle id="57" depart="68.40">
        <route edges="gneE2 -gneE1"/>
    </vehicle>
    <vehicle id="58" depart="69.60">
        <route edges="gneE1 -gneE2"/>
    </vehicle>
    <vehicle id="59" depart="70.80">
        <route edges="gneE2 -gneE1"/>
    </vehicle>
    <vehicle id="60" depart="72.00">
        <route edges="gneE3 -gneE1"/>
    </vehicle>
    <vehicle id="61" depart="73.20">
        <route edges="gneE3 -gneE1"/>
    </vehicle>
    <vehicle id="62" depart="74.40">
        <route edges="gneE1 -gneE2"/>
    </vehicle>
    <vehicle id="63" depart="75.60">
        <route edges="gneE1 -gneE2"/>
    </vehicle>
    <vehicle id="64" depart="76.80">
        <route edges="gneE3 -gneE1"/>
    </vehicle>
    <vehicle id="67" depart="80.40">
        <route edges="gneE1 -gneE2"/>
    </vehicle>
    <vehicle id="68" depart="81.60">
        <route edges="gneE1 -gneE2"/>
    </vehicle>
    <vehicle id="70" depart="84.00">
        <route edges="gneE2 -gneE1"/>
    </vehicle>
    <vehicle id="71" depart="85.20">
        <route edges="gneE2 -gneE1"/>
    </vehicle>
    <vehicle id="74" depart="88.80">
        <route edges="gneE2 -gneE1"/>
    </vehicle>
    <vehicle id="75" depart="90.00">
        <route edges="gneE2 -gneE1"/>
    </vehicle>
    <vehicle id="77" depart="92.40">
        <route edges="gneE1 -gneE2"/>
    </vehicle>
    <vehicle id="78" depart="93.60">
        <route edges="gneE3 -gneE2"/>
    </vehicle>
    <vehicle id="79" depart="94.80">
        <route edges="gneE2 -gneE1"/>
    </vehicle>
    <vehicle id="80" depart="96.00">
        <route edges="gneE3 -gneE1"/>
    </vehicle>
    <vehicle id="81" depart="97.20">
        <route edges="gneE3 -gneE2"/>
    </vehicle>
    <vehicle id="82" depart="98.40">
        <route edges="gneE3 -gneE2"/>
    </vehicle>
    <vehicle id="83" depart="99.60">
        <route edges="gneE3 -gneE1"/>
    </vehicle>
    <vehicle id="85" depart="102.00">
        <route edges="gneE2 -gneE1"/>
    </vehicle>
    <vehicle id="86" depart="103.20">
        <route edges="gneE1 -gneE2"/>
    </vehicle>
    <vehicle id="87" depart="104.40">
        <route edges="gneE3 -gneE2"/>
    </vehicle>
    <vehicle id="88" depart="105.60">
        <route edges="gneE1 -gneE2"/>
    </vehicle>
    <vehicle id="89" depart="106.80">
        <route edges="gneE3 -gneE1"/>
    </vehicle>
    <vehicle id="90" depart="108.00">
        <route edges="gneE3 -gneE1"/>
    </vehicle>
    <vehicle id="91" depart="109.20">
        <route edges="gneE3 -gneE1"/>
    </vehicle>
    <vehicle id="93" depart="111.60">
        <route edges="gneE2 -gneE1"/>
    </vehicle>
    <vehicle id="94" depart="112.80">
        <route edges="gneE3 -gneE2"/>
    </vehicle>
    <vehicle id="95" depart="114.00">
        <route edges="gneE1 -gneE2"/>
    </vehicle>
    <vehicle id="96" depart="115.20">
        <route edges="gneE3 -gneE1"/>
    </vehicle>
    <vehicle id="99" depart="118.80">
        <route edges="gneE3 -gneE2"/>
    </vehicle>
    <vehicle id="101" depart="121.20">
        <route edges="gneE1 -gneE2"/>
    </vehicle>
    <vehicle id="102" depart="122.40">
        <route edges="gneE3 -gneE2"/>
    </vehicle>
    <vehicle id="103" depart="123.60">
        <route edges="gneE3 -gneE2"/>
    </vehicle>
    <vehicle id="105" depart="126.00">
        <route edges="gneE3 -gneE1"/>
    </vehicle>
    <vehicle id="106" depart="127.20">
        <route edges="gneE1 -gneE2"/>
    </vehicle>
    <vehicle id="107" depart="128.40">
        <route edges="gneE3 -gneE1"/>
    </vehicle>
    <vehicle id="108" depart="129.60">
        <route edges="gneE1 -gneE2"/>
    </vehicle>
    <vehicle id="110" depart="132.00">
        <route edges="gneE3 -gneE2"/>
    </vehicle>
    <vehicle id="113" depart="135.60">
        <route edges="gneE1 -gneE2"/>
    </vehicle>
    <vehicle id="115" depart="138.00">
        <route edges="gneE1 -gneE2"/>
    </vehicle>
    <vehicle id="116" depart="139.20">
        <route edges="gneE3 -gneE2"/>
    </vehicle>
    <vehicle id="117" depart="140.40">
        <route edges="gneE3 -gneE2"/>
    </vehicle>
    <vehicle id="118" depart="141.60">
        <route edges="gneE1 -gneE2"/>
    </vehicle>
    <vehicle id="119" depart="142.80">
        <route edges="gneE3 -gneE1"/>
    </vehicle>
    <vehicle id="121" depart="145.20">
        <route edges="gneE3 -gneE2"/>
    </vehicle>
    <vehicle id="125" depart="150.00">
        <route edges="gneE1 -gneE2"/>
    </vehicle>
    <vehicle id="127" depart="152.40">
        <route edges="gneE3 -gneE1"/>
    </vehicle>
    <vehicle id="128" depart="153.60">
        <route edges="gneE1 -gneE2"/>
    </vehicle>
    <vehicle id="130" depart="156.00">
        <route edges="gneE1 -gneE2"/>
    </vehicle>
    <vehicle id="131" depart="157.20">
        <route edges="gneE3 -gneE2"/>
    </vehicle>
    <vehicle id="132" depart="158.40">
        <route edges="gneE3 -gneE2"/>
    </vehicle>
    <vehicle id="133" depart="159.60">
        <route edges="gneE1 -gneE2"/>
    </vehicle>
    <vehicle id="134" depart="160.80">
        <route edges="gneE1 -gneE2"/>
    </vehicle>
    <vehicle id="136" depart="163.20">
        <route edges="gneE3 -gneE2"/>
    </vehicle>
    <vehicle id="137" depart="164.40">
        <route edges="gneE3 -gneE1"/>
    </vehicle>
    <vehicle id="138" depart="165.60">
        <route edges="gneE2 -gneE1"/>
    </vehicle>
    <vehicle id="142" depart="170.40">
        <route edges="gneE3 -gneE2"/>
    </vehicle>
    <vehicle id="143" depart="171.60">
        <route edges="gneE1 -gneE2"/>
    </vehicle>
    <vehicle id="145" depart="174.00">
        <route edges="gneE2 -gneE1"/>
    </vehicle>
    <vehicle id="146" depart="175.20">
        <route edges="gneE2 -gneE1"/>
    </vehicle>
    <vehicle id="148" depart="177.60">
        <route edges="gneE3 -gneE1"/>
    </vehicle>
    <vehicle id="149" depart="178.80">
        <route edges="gneE3 -gneE1"/>
    </vehicle>
    <vehicle id="150" depart="180.00">
        <route edges="gneE3 -gneE2"/>
    </vehicle>
    <vehicle id="152" depart="182.40">
        <route edges="gneE2 -gneE1"/>
    </vehicle>
    <vehicle id="153" depart="183.60">
        <route edges="gneE3 -gneE1"/>
    </vehicle>
    <vehicle id="155" depart="186.00">
        <route edges="gneE3 -gneE2"/>
    </vehicle>
    <vehicle id="156" depart="187.20">
        <route edges="gneE2 -gneE1"/>
    </vehicle>
    <vehicle id="157" depart="188.40">
        <route edges="gneE1 -gneE2"/>
    </vehicle>
    <vehicle id="158" depart="189.60">
        <route edges="gneE3 -gneE2"/>
    </vehicle>
    <vehicle id="159" depart="190.80">
        <route edges="gneE1 -gneE2"/>
    </vehicle>
    <vehicle id="160" depart="192.00">
        <route edges="gneE3 -gneE2"/>
    </vehicle>
    <vehicle id="163" depart="195.60">
        <route edges="gneE2 -gneE1"/>
    </vehicle>
    <vehicle id="164" depart="196.80">
        <route edges="gneE3 -gneE2"/>
    </vehicle>
    <vehicle id="166" depart="199.20">
        <route edges="gneE3 -gneE2"/>
    </vehicle>
    <vehicle id="167" depart="200.40">
        <route edges="gneE3 -gneE1"/>
    </vehicle>
    <vehicle id="168" depart="201.60">
        <route edges="gneE1 -gneE2"/>
    </vehicle>
    <vehicle id="169" depart="202.80">
        <route edges="gneE3 -gneE1"/>
    </vehicle>
    <vehicle id="170" depart="204.00">
        <route edges="gneE1 -gneE2"/>
    </vehicle>
    <vehicle id="171" depart="205.20">
        <route edges="gneE1 -gneE2"/>
    </vehicle>
    <vehicle id="172" depart="206.40">
        <route edges="gneE1 -gneE2"/>
    </vehicle>
    <vehicle id="174" depart="208.80">
        <route edges="gneE1 -gneE2"/>
    </vehicle>
    <vehicle id="175" depart="210.00">
        <route edges="gneE3 -gneE2"/>
    </vehicle>
    <vehicle id="176" depart="211.20">
        <route edges="gneE2 -gneE1"/>
    </vehicle>
    <vehicle id="178" depart="213.60">
        <route edges="gneE3 -gneE2"/>
    </vehicle>
    <vehicle id="179" depart="214.80">
        <route edges="gneE1 -gneE2"/>
    </vehicle>
    <vehicle id="180" depart="216.00">
        <route edges="gneE1 -gneE2"/>
    </vehicle>
    <vehicle id="181" depart="217.20">
        <route edges="gneE2 -gneE1"/>
    </vehicle>
    <vehicle id="183" depart="219.60">
        <route edges="gneE3 -gneE1"/>
    </vehicle>
    <vehicle id="184" depart="220.80">
        <route edges="gneE3 -gneE1"/>
    </vehicle>
    <vehicle id="185" depart="222.00">
        <route edges="gneE2 -gneE1"/>
    </vehicle>
    <vehicle id="186" depart="223.20">
        <route edges="gneE3 -gneE1"/>
    </vehicle>
    <vehicle id="188" depart="225.60">
        <route edges="gneE2 -gneE1"/>
    </vehicle>
    <vehicle id="190" depart="228.00">
        <route edges="gneE3 -gneE1"/>
    </vehicle>
    <vehicle id="191" depart="229.20">
        <route edges="gneE2 -gneE1"/>
    </vehicle>
    <vehicle id="192" depart="230.40">
        <route edges="gneE1 -gneE2"/>
    </vehicle>
    <vehicle id="195" depart="234.00">
        <route edges="gneE3 -gneE2"/>
    </vehicle>
    <vehicle id="196" depart="235.20">
        <route edges="gneE3 -gneE1"/>
    </vehicle>
    <vehicle id="198" depart="237.60">
        <route edges="gneE3 -gneE1"/>
    </vehicle>
    <vehicle id="201" depart="241.20">
        <route edges="gneE2 -gneE1"/>
    </vehicle>
    <vehicle id="202" depart="242.40">
        <route edges="gneE2 -gneE1"/>
    </vehicle>
    <vehicle id="203" depart="243.60">
        <route edges="gneE1 -gneE2"/>
    </vehicle>
    <vehicle id="205" depart="246.00">
        <route edges="gneE3 -gneE1"/>
    </vehicle>
    <vehicle id="207" depart="248.40">
        <route edges="gneE3 -gneE2"/>
    </vehicle>
    <vehicle id="208" depart="249.60">
        <route edges="gneE3 -gneE2"/>
    </vehicle>
    <vehicle id="209" depart="250.80">
        <route edges="gneE2 -gneE1"/>
    </vehicle>
    <vehicle id="210" depart="252.00">
        <route edges="gneE2 -gneE1"/>
    </vehicle>
    <vehicle id="211" depart="253.20">
        <route edges="gneE2 -gneE1"/>
    </vehicle>
    <vehicle id="212" depart="254.40">
        <route edges="gneE1 -gneE2"/>
    </vehicle>
    <vehicle id="213" depart="255.60">
        <route edges="gneE3 -gneE2"/>
    </vehicle>
    <vehicle id="214" depart="256.80">
        <route edges="gneE1 -gneE2"/>
    </vehicle>
    <vehicle id="215" depart="258.00">
        <route edges="gneE3 -gneE1"/>
    </vehicle>
    <vehicle id="216" depart="259.20">
        <route edges="gneE2 -gneE1"/>
    </vehicle>
    <vehicle id="217" depart="260.40">
        <route edges="gneE1 -gneE2"/>
    </vehicle>
    <vehicle id="218" depart="261.60">
        <route edges="gneE2 -gneE1"/>
    </vehicle>
    <vehicle id="219" depart="262.80">
        <route edges="gneE3 -gneE2"/>
    </vehicle>
    <vehicle id="221" depart="265.20">
        <route edges="gneE3 -gneE1"/>
    </vehicle>
    <vehicle id="225" depart="270.00">
        <route edges="gneE3 -gneE2"/>
    </vehicle>
    <vehicle id="226" depart="271.20">
        <route edges="gneE2 -gneE1"/>
    </vehicle>
    <vehicle id="227" depart="272.40">
        <route edges="gneE3 -gneE2"/>
    </vehicle>
    <vehicle id="228" depart="273.60">
        <route edges="gneE1 -gneE2"/>
    </vehicle>
    <vehicle id="229" depart="274.80">
        <route edges="gneE2 -gneE1"/>
    </vehicle>
    <vehicle id="230" depart="276.00">
        <route edges="gneE1 -gneE2"/>
    </vehicle>
    <vehicle id="231" depart="277.20">
        <route edges="gneE2 -gneE1"/>
    </vehicle>
    <vehicle id="235" depart="282.00">
        <route edges="gneE1 -gneE2"/>
    </vehicle>
    <vehicle id="237" depart="284.40">
        <route edges="gneE2 -gneE1"/>
    </vehicle>
    <vehicle id="238" depart="285.60">
        <route edges="gneE3 -gneE1"/>
    </vehicle>
    <vehicle id="242" depart="290.40">
        <route edges="gneE3 -gneE2"/>
    </vehicle>
    <vehicle id="244" depart="292.80">
        <route edges="gneE3 -gneE1"/>
    </vehicle>
    <vehicle id="245" depart="294.00">
        <route edges="gneE1 -gneE2"/>
    </vehicle>
    <vehicle id="247" depart="296.40">
        <route edges="gneE2 -gneE1"/>
    </vehicle>
    <vehicle id="249" depart="298.80">
        <route edges="gneE1 -gneE2"/>
    </vehicle>
    <vehicle id="251" depart="301.20">
        <route edges="gneE3 -gneE2"/>
    </vehicle>
    <vehicle id="253" depart="303.60">
        <route edges="gneE1 -gneE2"/>
    </vehicle>
    <vehicle id="254" depart="304.80">
        <route edges="gneE1 -gneE2"/>
    </vehicle>
    <vehicle id="257" depart="308.40">
        <route edges="gneE2 -gneE1"/>
    </vehicle>
    <vehicle id="260" depart="312.00">
        <route edges="gneE3 -gneE1"/>
    </vehicle>
    <vehicle id="262" depart="314.40">
        <route edges="gneE1 -gneE2"/>
    </vehicle>
    <vehicle id="263" depart="315.60">
        <route edges="gneE2 -gneE1"/>
    </vehicle>
    <vehicle id="264" depart="316.80">
        <route edges="gneE2 -gneE1"/>
    </vehicle>
    <vehicle id="265" depart="318.00">
        <route edges="gneE1 -gneE2"/>
    </vehicle>
    <vehicle id="266" depart="319.20">
        <route edges="gneE3 -gneE1"/>
    </vehicle>
    <vehicle id="267" depart="320.40">
        <route edges="gneE3 -gneE2"/>
    </vehicle>
    <vehicle id="270" depart="324.00">
        <route edges="gneE1 -gneE2"/>
    </vehicle>
    <vehicle id="272" depart="326.40">
        <route edges="gneE3 -gneE1"/>
    </vehicle>
    <vehicle id="274" depart="328.80">
        <route edges="gneE2 -gneE1"/>
    </vehicle>
    <vehicle id="277" depart="332.40">
        <route edges="gneE3 -gneE2"/>
    </vehicle>
    <vehicle id="279" depart="334.80">
        <route edges="gneE2 -gneE1"/>
    </vehicle>
    <vehicle id="280" depart="336.00">
        <route edges="gneE2 -gneE1"/>
    </vehicle>
    <vehicle id="282" depart="338.40">
        <route edges="gneE3 -gneE2"/>
    </vehicle>
    <vehicle id="283" depart="339.60">
        <route edges="gneE2 -gneE1"/>
    </vehicle>
    <vehicle id="286" depart="343.20">
        <route edges="gneE3 -gneE1"/>
    </vehicle>
    <vehicle id="287" depart="344.40">
        <route edges="gneE3 -gneE2"/>
    </vehicle>
    <vehicle id="288" depart="345.60">
        <route edges="gneE3 -gneE2"/>
    </vehicle>
    <vehicle id="289" depart="346.80">
        <route edges="gneE2 -gneE1"/>
    </vehicle>
    <vehicle id="290" depart="348.00">
        <route edges="gneE3 -gneE1"/>
    </vehicle>
    <vehicle id="292" depart="350.40">
        <route edges="gneE3 -gneE2"/>
    </vehicle>
    <vehicle id="293" depart="351.60">
        <route edges="gneE3 -gneE2"/>
    </vehicle>
    <vehicle id="294" depart="352.80">
        <route edges="gneE2 -gneE1"/>
    </vehicle>
    <vehicle id="295" depart="354.00">
        <route edges="gneE1 -gneE2"/>
    </vehicle>
    <vehicle id="297" depart="356.40">
        <route edges="gneE1 -gneE2"/>
    </vehicle>
    <vehicle id="298" depart="357.60">
        <route edges="gneE2 -gneE1"/>
    </vehicle>
    <vehicle id="299" depart="358.80">
        <route edges="gneE3 -gneE2"/>
    </vehicle>
    <vehicle id="300" depart="360.00">
        <route edges="gneE3 -gneE2"/>
    </vehicle>
    <vehicle id="301" depart="361.20">
        <route edges="gneE2 -gneE1"/>
    </vehicle>
    <vehicle id="302" depart="362.40">
        <route edges="gneE3 -gneE1"/>
    </vehicle>
    <vehicle id="303" depart="363.60">
        <route edges="gneE3 -gneE1"/>
    </vehicle>
    <vehicle id="306" depart="367.20">
        <route edges="gneE1 -gneE2"/>
    </vehicle>
    <vehicle id="308" depart="369.60">
        <route edges="gneE3 -gneE1"/>
    </vehicle>
    <vehicle id="309" depart="370.80">
        <route edges="gneE1 -gneE2"/>
    </vehicle>
    <vehicle id="310" depart="372.00">
        <route edges="gneE3 -gneE2"/>
    </vehicle>
    <vehicle id="311" depart="373.20">
        <route edges="gneE2 -gneE1"/>
    </vehicle>
    <vehicle id="312" depart="374.40">
        <route edges="gneE2 -gneE1"/>
    </vehicle>
    <vehicle id="314" depart="376.80">
        <route edges="gneE1 -gneE2"/>
    </vehicle>
    <vehicle id="316" depart="379.20">
        <route edges="gneE3 -gneE2"/>
    </vehicle>
    <vehicle id="317" depart="380.40">
        <route edges="gneE2 -gneE1"/>
    </vehicle>
    <vehicle id="319" depart="382.80">
        <route edges="gneE2 -gneE1"/>
    </vehicle>
    <vehicle id="321" depart="385.20">
        <route edges="gneE1 -gneE2"/>
    </vehicle>
    <vehicle id="322" depart="386.40">
        <route edges="gneE3 -gneE2"/>
    </vehicle>
    <vehicle id="324" depart="388.80">
        <route edges="gneE3 -gneE1"/>
    </vehicle>
    <vehicle id="327" depart="392.40">
        <route edges="gneE1 -gneE2"/>
    </vehicle>
    <vehicle id="328" depart="393.60">
        <route edges="gneE1 -gneE2"/>
    </vehicle>
    <vehicle id="329" depart="394.80">
        <route edges="gneE1 -gneE2"/>
    </vehicle>
    <vehicle id="331" depart="397.20">
        <route edges="gneE3 -gneE1"/>
    </vehicle>
    <vehicle id="332" depart="398.40">
        <route edges="gneE1 -gneE2"/>
    </vehicle>
    <vehicle id="333" depart="399.60">
        <route edges="gneE1 -gneE2"/>
    </vehicle>
    <vehicle id="335" depart="402.00">
        <route edges="gneE2 -gneE1"/>
    </vehicle>
    <vehicle id="339" depart="406.80">
        <route edges="gneE3 -gneE1"/>
    </vehicle>
    <vehicle id="340" depart="408.00">
        <route edges="gneE3 -gneE2"/>
    </vehicle>
    <vehicle id="344" depart="412.80">
        <route edges="gneE3 -gneE1"/>
    </vehicle>
    <vehicle id="345" depart="414.00">
        <route edges="gneE3 -gneE1"/>
    </vehicle>
    <vehicle id="347" depart="416.40">
        <route edges="gneE3 -gneE1"/>
    </vehicle>
    <vehicle id="349" depart="418.80">
        <route edges="gneE2 -gneE1"/>
    </vehicle>
    <vehicle id="351" depart="421.20">
        <route edges="gneE3 -gneE2"/>
    </vehicle>
    <vehicle id="352" depart="422.40">
        <route edges="gneE3 -gneE1"/>
    </vehicle>
    <vehicle id="353" depart="423.60">
        <route edges="gneE2 -gneE1"/>
    </vehicle>
    <vehicle id="354" depart="424.80">
        <route edges="gneE3 -gneE2"/>
    </vehicle>
    <vehicle id="356" depart="427.20">
        <route edges="gneE3 -gneE2"/>
    </vehicle>
    <vehicle id="358" depart="429.60">
        <route edges="gneE3 -gneE2"/>
    </vehicle>
    <vehicle id="359" depart="430.80">
        <route edges="gneE3 -gneE2"/>
    </vehicle>
    <vehicle id="360" depart="432.00">
        <route edges="gneE3 -gneE1"/>
    </vehicle>
    <vehicle id="362" depart="434.40">
        <route edges="gneE3 -gneE2"/>
    </vehicle>
    <vehicle id="363" depart="435.60">
        <route edges="gneE1 -gneE2"/>
    </vehicle>
    <vehicle id="364" depart="436.80">
        <route edges="gneE2 -gneE1"/>
    </vehicle>
    <vehicle id="368" depart="441.60">
        <route edges="gneE1 -gneE2"/>
    </vehicle>
    <vehicle id="369" depart="442.80">
        <route edges="gneE3 -gneE2"/>
    </vehicle>
    <vehicle id="370" depart="444.00">
        <route edges="gneE3 -gneE1"/>
    </vehicle>
    <vehicle id="371" depart="445.20">
        <route edges="gneE2 -gneE1"/>
    </vehicle>
    <vehicle id="374" depart="448.80">
        <route edges="gneE3 -gneE2"/>
    </vehicle>
    <vehicle id="377" depart="452.40">
        <route edges="gneE1 -gneE2"/>
    </vehicle>
    <vehicle id="378" depart="453.60">
        <route edges="gneE2 -gneE1"/>
    </vehicle>
    <vehicle id="379" depart="454.80">
        <route edges="gneE1 -gneE2"/>
    </vehicle>
    <vehicle id="381" depart="457.20">
        <route edges="gneE2 -gneE1"/>
    </vehicle>
    <vehicle id="383" depart="459.60">
        <route edges="gneE3 -gneE1"/>
    </vehicle>
    <vehicle id="384" depart="460.80">
        <route edges="gneE2 -gneE1"/>
    </vehicle>
    <vehicle id="385" depart="462.00">
        <route edges="gneE1 -gneE2"/>
    </vehicle>
    <vehicle id="386" depart="463.20">
        <route edges="gneE3 -gneE1"/>
    </vehicle>
    <vehicle id="387" depart="464.40">
        <route edges="gneE3 -gneE1"/>
    </vehicle>
    <vehicle id="389" depart="466.80">
        <route edges="gneE1 -gneE2"/>
    </vehicle>
    <vehicle id="390" depart="468.00">
        <route edges="gneE2 -gneE1"/>
    </vehicle>
    <vehicle id="391" depart="469.20">
        <route edges="gneE3 -gneE2"/>
    </vehicle>
    <vehicle id="392" depart="470.40">
        <route edges="gneE3 -gneE1"/>
    </vehicle>
    <vehicle id="393" depart="471.60">
        <route edges="gneE2 -gneE1"/>
    </vehicle>
    <vehicle id="394" depart="472.80">
        <route edges="gneE1 -gneE2"/>
    </vehicle>
    <vehicle id="395" depart="474.00">
        <route edges="gneE2 -gneE1"/>
    </vehicle>
    <vehicle id="396" depart="475.20">
        <route edges="gneE3 -gneE1"/>
    </vehicle>
    <vehicle id="397" depart="476.40">
        <route edges="gneE3 -gneE1"/>
    </vehicle>
    <vehicle id="399" depart="478.80">
        <route edges="gneE3 -gneE1"/>
    </vehicle>
    <vehicle id="401" depart="481.20">
        <route edges="gneE3 -gneE2"/>
    </vehicle>
    <vehicle id="403" depart="483.60">
        <route edges="gneE3 -gneE1"/>
    </vehicle>
    <vehicle id="407" depart="488.40">
        <route edges="gneE2 -gneE1"/>
    </vehicle>
    <vehicle id="409" depart="490.80">
        <route edges="gneE3 -gneE2"/>
    </vehicle>
    <vehicle id="411" depart="493.20">
        <route edges="gneE2 -gneE1"/>
    </vehicle>
    <vehicle id="412" depart="494.40">
        <route edges="gneE3 -gneE2"/>
    </vehicle>
    <vehicle id="413" depart="495.60">
        <route edges="gneE3 -gneE1"/>
    </vehicle>
    <vehicle id="415" depart="498.00">
        <route edges="gneE2 -gneE1"/>
    </vehicle>
    <vehicle id="416" depart="499.20">
        <route edges="gneE2 -gneE1"/>
    </vehicle>
    <vehicle id="418" depart="501.60">
        <route edges="gneE2 -gneE1"/>
    </vehicle>
    <vehicle id="419" depart="502.80">
        <route edges="gneE2 -gneE1"/>
    </vehicle>
    <vehicle id="420" depart="504.00">
        <route edges="gneE1 -gneE2"/>
    </vehicle>
    <vehicle id="421" depart="505.20">
        <route edges="gneE1 -gneE2"/>
    </vehicle>
    <vehicle id="423" depart="507.60">
        <route edges="gneE2 -gneE1"/>
    </vehicle>
    <vehicle id="424" depart="508.80">
        <route edges="gneE2 -gneE1"/>
    </vehicle>
    <vehicle id="425" depart="510.00">
        <route edges="gneE2 -gneE1"/>
    </vehicle>
    <vehicle id="426" depart="511.20">
        <route edges="gneE1 -gneE2"/>
    </vehicle>
    <vehicle id="428" depart="513.60">
        <route edges="gneE3 -gneE1"/>
    </vehicle>
    <vehicle id="430" depart="516.00">
        <route edges="gneE2 -gneE1"/>
    </vehicle>
    <vehicle id="431" depart="517.20">
        <route edges="gneE3 -gneE1"/>
    </vehicle>
    <vehicle id="432" depart="518.40">
        <route edges="gneE1 -gneE2"/>
    </vehicle>
    <vehicle id="433" depart="519.60">
        <route edges="gneE2 -gneE1"/>
    </vehicle>
    <vehicle id="434" depart="520.80">
        <route edges="gneE2 -gneE1"/>
    </vehicle>
    <vehicle id="435" depart="522.00">
        <route edges="gneE1 -gneE2"/>
    </vehicle>
    <vehicle id="436" depart="523.20">
        <route edges="gneE3 -gneE2"/>
    </vehicle>
    <vehicle id="437" depart="524.40">
        <route edges="gneE1 -gneE2"/>
    </vehicle>
    <vehicle id="439" depart="526.80">
        <route edges="gneE3 -gneE1"/>
    </vehicle>
    <vehicle id="440" depart="528.00">
        <route edges="gneE2 -gneE1"/>
    </vehicle>
    <vehicle id="441" depart="529.20">
        <route edges="gneE1 -gneE2"/>
    </vehicle>
    <vehicle id="443" depart="531.60">
        <route edges="gneE3 -gneE1"/>
    </vehicle>
    <vehicle id="444" depart="532.80">
        <route edges="gneE3 -gneE1"/>
    </vehicle>
    <vehicle id="445" depart="534.00">
        <route edges="gneE1 -gneE2"/>
    </vehicle>
    <vehicle id="446" depart="535.20">
        <route edges="gneE3 -gneE2"/>
    </vehicle>
    <vehicle id="447" depart="536.40">
        <route edges="gneE1 -gneE2"/>
    </vehicle>
    <vehicle id="449" depart="538.80">
        <route edges="gneE3 -gneE1"/>
    </vehicle>
    <vehicle id="450" depart="540.00">
        <route edges="gneE3 -gneE2"/>
    </vehicle>
    <vehicle id="451" depart="541.20">
        <route edges="gneE3 -gneE2"/>
    </vehicle>
    <vehicle id="452" depart="542.40">
        <route edges="gneE1 -gneE2"/>
    </vehicle>
    <vehicle id="453" depart="543.60">
        <route edges="gneE3 -gneE2"/>
    </vehicle>
    <vehicle id="454" depart="544.80">
        <route edges="gneE3 -gneE2"/>
    </vehicle>
    <vehicle id="455" depart="546.00">
        <route edges="gneE3 -gneE2"/>
    </vehicle>
    <vehicle id="457" depart="548.40">
        <route edges="gneE1 -gneE2"/>
    </vehicle>
    <vehicle id="459" depart="550.80">
        <route edges="gneE1 -gneE2"/>
    </vehicle>
    <vehicle id="460" depart="552.00">
        <route edges="gneE2 -gneE1"/>
    </vehicle>
    <vehicle id="461" depart="553.20">
        <route edges="gneE3 -gneE1"/>
    </vehicle>
    <vehicle id="462" depart="554.40">
        <route edges="gneE2 -gneE1"/>
    </vehicle>
    <vehicle id="466" depart="559.20">
        <route edges="gneE2 -gneE1"/>
    </vehicle>