<?xml version="1.0" encoding="UTF-8"?>

<!-- generated on Sun May  6 21:21:31 2018 by SUMO duarouter Version 0.30.0
<?xml version="1.0" encoding="UTF-8"?>

<configuration xmlns:xsi="http://www.w3.org/2001/XMLSchema-instance" xsi:noNamespaceSchemaLocation="http://sumo.dlr.de/xsd/duarouterConfiguration.xsd">

    <input>
        <net-file value="simple_T/simple_T.net.xml"/>
        <route-files value="trips.trips.xml"/>
    </input>

    <output>
        <output-file value="simple_T/route/simple_T-0.9-6.rou.xml"/>
    </output>

    <processing>
        <ignore-errors value="true"/>
    </processing>

    <time>
        <begin value="0.0"/>
        <end value="1000.0"/>
    </time>

    <report>
        <no-warnings value="true"/>
        <no-step-log value="true"/>
    </report>

</configuration>
-->

<routes xmlns:xsi="http://www.w3.org/2001/XMLSchema-instance" xsi:noNamespaceSchemaLocation="http://sumo.dlr.de/xsd/routes_file.xsd">
    <vehicle id="0" depart="0.00">
        <route edges="gneE3 -gneE2"/>
    </vehicle>
    <vehicle id="4" depart="3.60">
        <route edges="gneE3 -gneE1"/>
    </vehicle>
    <vehicle id="5" depart="4.50">
        <route edges="gneE2 -gneE1"/>
    </vehicle>
    <vehicle id="8" depart="7.20">
        <route edges="gneE2 -gneE1"/>
    </vehicle>
    <vehicle id="12" depart="10.80">
        <route edges="gneE3 -gneE1"/>
    </vehicle>
    <vehicle id="13" depart="11.70">
        <route edges="gneE3 -gneE2"/>
    </vehicle>
    <vehicle id="15" depart="13.50">
        <route edges="gneE3 -gneE2"/>
    </vehicle>
    <vehicle id="16" depart="14.40">
        <route edges="gneE2 -gneE1"/>
    </vehicle>
    <vehicle id="17" depart="15.30">
        <route edges="gneE2 -gneE1"/>
    </vehicle>
    <vehicle id="19" depart="17.10">
        <route edges="gneE2 -gneE1"/>
    </vehicle>
    <vehicle id="20" depart="18.00">
        <route edges="gneE2 -gneE1"/>
    </vehicle>
    <vehicle id="21" depart="18.90">
        <route edges="gneE1 -gneE2"/>
    </vehicle>
    <vehicle id="22" depart="19.80">
        <route edges="gneE3 -gneE2"/>
    </vehicle>
    <vehicle id="23" depart="20.70">
        <route edges="gneE3 -gneE1"/>
    </vehicle>
    <vehicle id="24" depart="21.60">
        <route edges="gneE3 -gneE2"/>
    </vehicle>
    <vehicle id="26" depart="23.40">
        <route edges="gneE2 -gneE1"/>
    </vehicle>
    <vehicle id="27" depart="24.30">
        <route edges="gneE3 -gneE1"/>
    </vehicle>
    <vehicle id="28" depart="25.20">
        <route edges="gneE2 -gneE1"/>
    </vehicle>
    <vehicle id="29" depart="26.10">
        <route edges="gneE1 -gneE2"/>
    </vehicle>
    <vehicle id="31" depart="27.90">
        <route edges="gneE1 -gneE2"/>
    </vehicle>
    <vehicle id="32" depart="28.80">
        <route edges="gneE3 -gneE1"/>
    </vehicle>
    <vehicle id="33" depart="29.70">
        <route edges="gneE1 -gneE2"/>
    </vehicle>
    <vehicle id="34" depart="30.60">
        <route edges="gneE3 -gneE1"/>
    </vehicle>
    <vehicle id="35" depart="31.50">
        <route edges="gneE1 -gneE2"/>
    </vehicle>
    <vehicle id="36" depart="32.40">
        <route edges="gneE3 -gneE1"/>
    </vehicle>
    <vehicle id="37" depart="33.30">
        <route edges="gneE2 -gneE1"/>
    </vehicle>
    <vehicle id="38" depart="34.20">
        <route edges="gneE3 -gneE1"/>
    </vehicle>
    <vehicle id="39" depart="35.10">
        <route edges="gneE2 -gneE1"/>
    </vehicle>
    <vehicle id="40" depart="36.00">
        <route edges="gneE3 -gneE2"/>
    </vehicle>
    <vehicle id="41" depart="36.90">
        <route edges="gneE1 -gneE2"/>
    </vehicle>
    <vehicle id="42" depart="37.80">
        <route edges="gneE3 -gneE1"/>
    </vehicle>
    <vehicle id="43" depart="38.70">
        <route edges="gneE2 -gneE1"/>
    </vehicle>
    <vehicle id="44" depart="39.60">
        <route edges="gneE2 -gneE1"/>
    </vehicle>
    <vehicle id="50" depart="45.00">
        <route edges="gneE1 -gneE2"/>
    </vehicle>
    <vehicle id="51" depart="45.90">
        <route edges="gneE2 -gneE1"/>
    </vehicle>
    <vehicle id="53" depart="47.70">
        <route edges="gneE3 -gneE2"/>
    </vehicle>
    <vehicle id="55" depart="49.50">
        <route edges="gneE3 -gneE1"/>
    </vehicle>
    <vehicle id="56" depart="50.40">
        <route edges="gneE3 -gneE1"/>
    </vehicle>
    <vehicle id="57" depart="51.30">
        <route edges="gneE2 -gneE1"/>
    </vehicle>
    <vehicle id="58" depart="52.20">
        <route edges="gneE2 -gneE1"/>
    </vehicle>
    <vehicle id="59" depart="53.10">
        <route edges="gneE3 -gneE2"/>
    </vehicle>
    <vehicle id="60" depart="54.00">
        <route edges="gneE1 -gneE2"/>
    </vehicle>
    <vehicle id="62" depart="55.80">
        <route edges="gneE3 -gneE1"/>
    </vehicle>
    <vehicle id="63" depart="56.70">
        <route edges="gneE3 -gneE2"/>
    </vehicle>
    <vehicle id="65" depart="58.50">
        <route edges="gneE2 -gneE1"/>
    </vehicle>
    <vehicle id="68" depart="61.20">
        <route edges="gneE3 -gneE2"/>
    </vehicle>
    <vehicle id="69" depart="62.10">
        <route edges="gneE2 -gneE1"/>
    </vehicle>
    <vehicle id="70" depart="63.00">
        <route edges="gneE3 -gneE2"/>
    </vehicle>
    <vehicle id="72" depart="64.80">
        <route edges="gneE3 -gneE1"/>
    </vehicle>
    <vehicle id="73" depart="65.70">
        <route edges="gneE2 -gneE1"/>
    </vehicle>
    <vehicle id="74" depart="66.60">
        <route edges="gneE3 -gneE2"/>
    </vehicle>
    <vehicle id="75" depart="67.50">
        <route edges="gneE3 -gneE2"/>
    </vehicle>
    <vehicle id="76" depart="68.40">
        <route edges="gneE2 -gneE1"/>
    </vehicle>
    <vehicle id="77" depart="69.30">
        <route edges="gneE3 -gneE1"/>
    </vehicle>
    <vehicle id="78" depart="70.20">
        <route edges="gneE2 -gneE1"/>
    </vehicle>
    <vehicle id="79" depart="71.10">
        <route edges="gneE2 -gneE1"/>
    </vehicle>
    <vehicle id="80" depart="72.00">
        <route edges="gneE3 -gneE1"/>
    </vehicle>
    <vehicle id="81" depart="72.90">
        <route edges="gneE3 -gneE1"/>
    </vehicle>
    <vehicle id="83" depart="74.70">
        <route edges="gneE2 -gneE1"/>
    </vehicle>
    <vehicle id="88" depart="79.20">
        <route edges="gneE1 -gneE2"/>
    </vehicle>
    <vehicle id="89" depart="80.10">
        <route edges="gneE3 -gneE1"/>
    </vehicle>
    <vehicle id="90" depart="81.00">
        <route edges="gneE1 -gneE2"/>
    </vehicle>
    <vehicle id="91" depart="81.90">
        <route edges="gneE3 -gneE2"/>
    </vehicle>
    <vehicle id="92" depart="82.80">
        <route edges="gneE1 -gneE2"/>
    </vehicle>
    <vehicle id="93" depart="83.70">
        <route edges="gneE3 -gneE1"/>
    </vehicle>
    <vehicle id="94" depart="84.60">
        <route edges="gneE1 -gneE2"/>
    </vehicle>
    <vehicle id="96" depart="86.40">
        <route edges="gneE2 -gneE1"/>
    </vehicle>
    <vehicle id="97" depart="87.30">
        <route edges="gneE2 -gneE1"/>
    </vehicle>
    <vehicle id="99" depart="89.10">
        <route edges="gneE2 -gneE1"/>
    </vehicle>
    <vehicle id="100" depart="90.00">
        <route edges="gneE3 -gneE2"/>
    </vehicle>
    <vehicle id="101" depart="90.90">
        <route edges="gneE3 -gneE1"/>
    </vehicle>
    <vehicle id="103" depart="92.70">
        <route edges="gneE3 -gneE2"/>
    </vehicle>
    <vehicle id="104" depart="93.60">
        <route edges="gneE3 -gneE1"/>
    </vehicle>
    <vehicle id="105" depart="94.50">
        <route edges="gneE1 -gneE2"/>
    </vehicle>
    <vehicle id="106" depart="95.40">
        <route edges="gneE3 -gneE1"/>
    </vehicle>
    <vehicle id="107" depart="96.30">
        <route edges="gneE2 -gneE1"/>
    </vehicle>
    <vehicle id="108" depart="97.20">
        <route edges="gneE2 -gneE1"/>
    </vehicle>
    <vehicle id="109" depart="98.10">
        <route edges="gneE3 -gneE1"/>
    </vehicle>
    <vehicle id="110" depart="99.00">
        <route edges="gneE3 -gneE1"/>
    </vehicle>
    <vehicle id="113" depart="101.70">
        <route edges="gneE3 -gneE2"/>
    </vehicle>
    <vehicle id="115" depart="103.50">
        <route edges="gneE3 -gneE2"/>
    </vehicle>
    <vehicle id="117" depart="105.30">
        <route edges="gneE3 -gneE1"/>
    </vehicle>
    <vehicle id="118" depart="106.20">
        <route edges="gneE3 -gneE1"/>
    </vehicle>
    <vehicle id="119" depart="107.10">
        <route edges="gneE3 -gneE1"/>
    </vehicle>
    <vehicle id="124" depart="111.60">
        <route edges="gneE1 -gneE2"/>
    </vehicle>
    <vehicle id="125" depart="112.50">
        <route edges="gneE3 -gneE1"/>
    </vehicle>
    <vehicle id="126" depart="113.40">
        <route edges="gneE3 -gneE1"/>
    </vehicle>
    <vehicle id="127" depart="114.30">
        <route edges="gneE1 -gneE2"/>
    </vehicle>
    <vehicle id="130" depart="117.00">
        <route edges="gneE3 -gneE1"/>
    </vehicle>
    <vehicle id="131" depart="117.90">
        <route edges="gneE3 -gneE2"/>
    </vehicle>
    <vehicle id="134" depart="120.60">
        <route edges="gneE1 -gneE2"/>
    </vehicle>
    <vehicle id="135" depart="121.50">
        <route edges="gneE3 -gneE2"/>
    </vehicle>
    <vehicle id="136" depart="122.40">
        <route edges="gneE3 -gneE1"/>
    </vehicle>
    <vehicle id="140" depart="126.00">
        <route edges="gneE3 -gneE2"/>
    </vehicle>
    <vehicle id="142" depart="127.80">
        <route edges="gneE3 -gneE2"/>
    </vehicle>
    <vehicle id="143" depart="128.70">
        <route edges="gneE3 -gneE2"/>
    </vehicle>
    <vehicle id="144" depart="129.60">
        <route edges="gneE1 -gneE2"/>
    </vehicle>
    <vehicle id="145" depart="130.50">
        <route edges="gneE2 -gneE1"/>
    </vehicle>
    <vehicle id="147" depart="132.30">
        <route edges="gneE3 -gneE1"/>
    </vehicle>
    <vehicle id="154" depart="138.60">
        <route edges="gneE3 -gneE2"/>
    </vehicle>
    <vehicle id="155" depart="139.50">
        <route edges="gneE3 -gneE1"/>
    </vehicle>
    <vehicle id="156" depart="140.40">
        <route edges="gneE3 -gneE1"/>
    </vehicle>
    <vehicle id="157" depart="141.30">
        <route edges="gneE3 -gneE2"/>
    </vehicle>
    <vehicle id="158" depart="142.20">
        <route edges="gneE3 -gneE1"/>
    </vehicle>
    <vehicle id="161" depart="144.90">
        <route edges="gneE3 -gneE2"/>
    </vehicle>
    <vehicle id="162" depart="145.80">
        <route edges="gneE3 -gneE2"/>
    </vehicle>
    <vehicle id="163" depart="146.70">
        <route edges="gneE3 -gneE1"/>
    </vehicle>
    <vehicle id="164" depart="147.60">
        <route edges="gneE1 -gneE2"/>
    </vehicle>
    <vehicle id="165" depart="148.50">
        <route edges="gneE3 -gneE2"/>
    </vehicle>
    <vehicle id="166" depart="149.40">
        <route edges="gneE3 -gneE2"/>
    </vehicle>
    <vehicle id="168" depart="151.20">
        <route edges="gneE3 -gneE1"/>
    </vehicle>
    <vehicle id="169" depart="152.10">
        <route edges="gneE1 -gneE2"/>
    </vehicle>
    <vehicle id="170" depart="153.00">
        <route edges="gneE3 -gneE2"/>
    </vehicle>
    <vehicle id="171" depart="153.90">
        <route edges="gneE3 -gneE1"/>
    </vehicle>
    <vehicle id="172" depart="154.80">
        <route edges="gneE3 -gneE1"/>
    </vehicle>
    <vehicle id="173" depart="155.70">
        <route edges="gneE2 -gneE1"/>
    </vehicle>
    <vehicle id="174" depart="156.60">
        <route edges="gneE2 -gneE1"/>
    </vehicle>
    <vehicle id="176" depart="158.40">
        <route edges="gneE3 -gneE1"/>
    </vehicle>
    <vehicle id="177" depart="159.30">
        <route edges="gneE1 -gneE2"/>
    </vehicle>
    <vehicle id="178" depart="160.20">
        <route edges="gneE3 -gneE1"/>
    </vehicle>
    <vehicle id="180" depart="162.00">
        <route edges="gneE3 -gneE1"/>
    </vehicle>
    <vehicle id="183" depart="164.70">
        <route edges="gneE2 -gneE1"/>
    </vehicle>
    <vehicle id="188" depart="169.20">
        <route edges="gneE3 -gneE1"/>
    </vehicle>
    <vehicle id="189" depart="170.10">
        <route edges="gneE3 -gneE2"/>
    </vehicle>
    <vehicle id="191" depart="171.90">
        <route edges="gneE3 -gneE1"/>
    </vehicle>
    <vehicle id="195" depart="175.50">
        <route edges="gneE3 -gneE1"/>
    </vehicle>
    <vehicle id="196" depart="176.40">
        <route edges="gneE3 -gneE1"/>
    </vehicle>
    <vehicle id="197" depart="177.30">
        <route edges="gneE2 -gneE1"/>
    </vehicle>
    <vehicle id="198" depart="178.20">
        <route edges="gneE3 -gneE2"/>
    </vehicle>
    <vehicle id="202" depart="181.80">
        <route edges="gneE3 -gneE1"/>
    </vehicle>
    <vehicle id="204" depart="183.60">
        <route edges="gneE3 -gneE1"/>
    </vehicle>
    <vehicle id="206" depart="185.40">
        <route edges="gneE2 -gneE1"/>
    </vehicle>
    <vehicle id="207" depart="186.30">
        <route edges="gneE2 -gneE1"/>
    </vehicle>
    <vehicle id="208" depart="187.20">
        <route edges="gneE3 -gneE2"/>
    </vehicle>
    <vehicle id="210" depart="189.00">
        <route edges="gneE2 -gneE1"/>
    </vehicle>
    <vehicle id="211" depart="189.90">
        <route edges="gneE1 -gneE2"/>
    </vehicle>
    <vehicle id="212" depart="190.80">
        <route edges="gneE3 -gneE1"/>
    </vehicle>
    <vehicle id="215" depart="193.50">
        <route edges="gneE1 -gneE2"/>
    </vehicle>
    <vehicle id="216" depart="194.40">
        <route edges="gneE1 -gneE2"/>
    </vehicle>
    <vehicle id="217" depart="195.30">
        <route edges="gneE3 -gneE1"/>
    </vehicle>
    <vehicle id="219" depart="197.10">
        <route edges="gneE1 -gneE2"/>
    </vehicle>
    <vehicle id="222" depart="199.80">
        <route edges="gneE1 -gneE2"/>
    </vehicle>
    <vehicle id="223" depart="200.70">
        <route edges="gneE3 -gneE1"/>
    </vehicle>
    <vehicle id="224" depart="201.60">
        <route edges="gneE3 -gneE1"/>
    </vehicle>
    <vehicle id="225" depart="202.50">
        <route edges="gneE1 -gneE2"/>
    </vehicle>
    <vehicle id="226" depart="203.40">
        <route edges="gneE2 -gneE1"/>
    </vehicle>
    <vehicle id="227" depart="204.30">
        <route edges="gneE3 -gneE2"/>
    </vehicle>
    <vehicle id="228" depart="205.20">
        <route edges="gneE1 -gneE2"/>
    </vehicle>
    <vehicle id="230" depart="207.00">
        <route edges="gneE3 -gneE2"/>
    </vehicle>
    <vehicle id="231" depart="207.90">
        <route edges="gneE2 -gneE1"/>
    </vehicle>
    <vehicle id="235" depart="211.50">
        <route edges="gneE3 -gneE1"/>
    </vehicle>
    <vehicle id="236" depart="212.40">
        <route edges="gneE1 -gneE2"/>
    </vehicle>
    <vehicle id="239" depart="215.10">
        <route edges="gneE1 -gneE2"/>
    </vehicle>
    <vehicle id="240" depart="216.00">
        <route edges="gneE3 -gneE2"/>
    </vehicle>
    <vehicle id="243" depart="218.70">
        <route edges="gneE2 -gneE1"/>
    </vehicle>
    <vehicle id="246" depart="221.40">
        <route edges="gneE3 -gneE2"/>
    </vehicle>
    <vehicle id="247" depart="222.30">
        <route edges="gneE1 -gneE2"/>
    </vehicle>
    <vehicle id="249" depart="224.10">
        <route edges="gneE3 -gneE1"/>
    </vehicle>
    <vehicle id="250" depart="225.00">
        <route edges="gneE3 -gneE2"/>
    </vehicle>
    <vehicle id="251" depart="225.90">
        <route edges="gneE3 -gneE2"/>
    </vehicle>
    <vehicle id="252" depart="226.80">
        <route edges="gneE3 -gneE2"/>
    </vehicle>
    <vehicle id="253" depart="227.70">
        <route edges="gneE3 -gneE1"/>
    </vehicle>
    <vehicle id="254" depart="228.60">
        <route edges="gneE1 -gneE2"/>
    </vehicle>
    <vehicle id="255" depart="229.50">
        <route edges="gneE3 -gneE1"/>
    </vehicle>
    <vehicle id="258" depart="232.20">
        <route edges="gneE3 -gneE1"/>
    </vehicle>
    <vehicle id="259" depart="233.10">
        <route edges="gneE3 -gneE2"/>
    </vehicle>
    <vehicle id="261" depart="234.90">
        <route edges="gneE2 -gneE1"/>
    </vehicle>
    <vehicle id="262" depart="235.80">
        <route edges="gneE3 -gneE2"/>
    </vehicle>
    <vehicle id="263" depart="236.70">
        <route edges="gneE2 -gneE1"/>
    </vehicle>
    <vehicle id="264" depart="237.60">
        <route edges="gneE1 -gneE2"/>
    </vehicle>
    <vehicle id="265" depart="238.50">
        <route edges="gneE3 -gneE2"/>
    </vehicle>
    <vehicle id="266" depart="239.40">
        <route edges="gneE3 -gneE2"/>
    </vehicle>
    <vehicle id="268" depart="241.20">
        <route edges="gneE3 -gneE2"/>
    </vehicle>
    <vehicle id="270" depart="243.00">
        <route edges="gneE3 -gneE2"/>
    </vehicle>
    <vehicle id="271" depart="243.90">
        <route edges="gneE1 -gneE2"/>
    </vehicle>
    <vehicle id="273" depart="245.70">
        <route edges="gneE1 -gneE2"/>
    </vehicle>
    <vehicle id="274" depart="246.60">
        <route edges="gneE2 -gneE1"/>
    </vehicle>
    <vehicle id="275" depart="247.50">
        <route edges="gneE2 -gneE1"/>
    </vehicle>
    <vehicle id="277" depart="249.30">
        <route edges="gneE1 -gneE2"/>
    </vehicle>
    <vehicle id="280" depart="252.00">
        <route edges="gneE3 -gneE1"/>
    </vehicle>
    <vehicle id="282" depart="253.80">
        <route edges="gneE3 -gneE1"/>
    </vehicle>
    <vehicle id="283" depart="254.70">
        <route edges="gneE2 -gneE1"/>
    </vehicle>
    <vehicle id="285" depart="256.50">
        <route edges="gneE3 -gneE2"/>
    </vehicle>
    <vehicle id="286" depart="257.40">
        <route edges="gneE3 -gneE1"/>
    </vehicle>
    <vehicle id="287" depart="258.30">
        <route edges="gneE3 -gneE2"/>
    </vehicle>
    <vehicle id="290" depart="261.00">
        <route edges="gneE2 -gneE1"/>
    </vehicle>
    <vehicle id="292" depart="262.80">
        <route edges="gneE2 -gneE1"/>
    </vehicle>
    <vehicle id="293" depart="263.70">
        <route edges="gneE2 -gneE1"/>
    </vehicle>
    <vehicle id="294" depart="264.60">
        <route edges="gneE3 -gneE2"/>
    </vehicle>
    <vehicle id="295" depart="265.50">
        <route edges="gneE3 -gneE2"/>
    </vehicle>
    <vehicle id="296" depart="266.40">
        <route edges="gneE3 -gneE2"/>
    </vehicle>
    <vehicle id="297" depart="267.30">
        <route edges="gneE1 -gneE2"/>
    </vehicle>
    <vehicle id="298" depart="268.20">
        <route edges="gneE2 -gneE1"/>
    </vehicle>
    <vehicle id="299" depart="269.10">
        <route edges="gneE3 -gneE1"/>
    </vehicle>
    <vehicle id="302" depart="271.80">
        <route edges="gneE3 -gneE1"/>
    </vehicle>
    <vehicle id="306" depart="275.40">
        <route edges="gneE3 -gneE1"/>
    </vehicle>
    <vehicle id="308" depart="277.20">
        <route edges="gneE3 -gneE2"/>
    </vehicle>
    <vehicle id="309" depart="278.10">
        <route edges="gneE1 -gneE2"/>
    </vehicle>
    <vehicle id="311" depart="279.90">
        <route edges="gneE3 -gneE2"/>
    </vehicle>
    <vehicle id="312" depart="280.80">
        <route edges="gneE3 -gneE1"/>
    </vehicle>
    <vehicle id="313" depart="281.70">
        <route edges="gneE3 -gneE2"/>
    </vehicle>
    <vehicle id="314" depart="282.60">
        <route edges="gneE1 -gneE2"/>
    </vehicle>
    <vehicle id="315" depart="283.50">
        <route edges="gneE1 -gneE2"/>
    </vehicle>
    <vehicle id="317" depart="285.30">
        <route edges="gneE3 -gneE2"/>
    </vehicle>
    <vehicle id="318" depart="286.20">
        <route edges="gneE1 -gneE2"/>
    </vehicle>
    <vehicle id="319" depart="287.10">
        <route edges="gneE2 -gneE1"/>
    </vehicle>
    <vehicle id="320" depart="288.00">
        <route edges="gneE2 -gneE1"/>
    </vehicle>
    <vehicle id="321" depart="288.90">
        <route edges="gneE3 -gneE2"/>
    </vehicle>
    <vehicle id="322" depart="289.80">
        <route edges="gneE3 -gneE1"/>
    </vehicle>
    <vehicle id="324" depart="291.60">
        <route edges="gneE2 -gneE1"/>
    </vehicle>
    <vehicle id="325" depart="292.50">
        <route edges="gneE1 -gneE2"/>
    </vehicle>
    <vehicle id="327" depart="294.30">
        <route edges="gneE1 -gneE2"/>
    </vehicle>
    <vehicle id="331" depart="297.90">
        <route edges="gneE3 -gneE1"/>
    </vehicle>
    <vehicle id="332" depart="298.80">
        <route edges="gneE3 -gneE1"/>
    </vehicle>
    <vehicle id="333" depart="299.70">
        <route edges="gneE3 -gneE2"/>
    </vehicle>
    <vehicle id="334" depart="300.60">
        <route edges="gneE1 -gneE2"/>
    </vehicle>
    <vehicle id="335" depart="301.50">
        <route edges="gneE2 -gneE1"/>
    </vehicle>
    <vehicle id="336" depart="302.40">
        <route edges="gneE2 -gneE1"/>
    </vehicle>
    <vehicle id="339" depart="305.10">
        <route edges="gneE3 -gneE2"/>
    </vehicle>
    <vehicle id="341" depart="306.90">
        <route edges="gneE1 -gneE2"/>
    </vehicle>
    <vehicle id="343" depart="308.70">
        <route edges="gneE3 -gneE1"/>
    </vehicle>
    <vehicle id="344" depart="309.60">
        <route edges="gneE2 -gneE1"/>
    </vehicle>
    <vehicle id="347" depart="312.30">
        <route edges="gneE1 -gneE2"/>
    </vehicle>
    <vehicle id="349" depart="314.10">
        <route edges="gneE2 -gneE1"/>
    </vehicle>
    <vehicle id="350" depart="315.00">
        <route edges="gneE3 -gneE1"/>
    </vehicle>
    <vehicle id="352" depart="316.80">
        <route edges="gneE3 -gneE1"/>
    </vehicle>
    <vehicle id="354" depart="318.60">
        <route edges="gneE2 -gneE1"/>
    </vehicle>
    <vehicle id="355" depart="319.50">
        <route edges="gneE1 -gneE2"/>
    </vehicle>
    <vehicle id="356" depart="320.40">
        <route edges="gneE3 -gneE2"/>
    </vehicle>
    <vehicle id="357" depart="321.30">
        <route edges="gneE3 -gneE2"/>
    </vehicle>
    <vehicle id="358" depart="322.20">
        <route edges="gneE3 -gneE1"/>
    </vehicle>
    <vehicle id="360" depart="324.00">
        <route edges="gneE2 -gneE1"/>
    </vehicle>
    <vehicle id="363" depart="326.70">
        <route edges="gneE2 -gneE1"/>
    </vehicle>
    <vehicle id="364" depart="327.60">
        <route edges="gneE3 -gneE2"/>
    </vehicle>
    <vehicle id="365" depart="328.50">
        <route edges="gneE3 -gneE2"/>
    </vehicle>
    <vehicle id="366" depart="329.40">
        <route edges="gneE1 -gneE2"/>
    </vehicle>
    <vehicle id="367" depart="330.30">
        <route edges="gneE1 -gneE2"/>
    </vehicle>
    <vehicle id="368" depart="331.20">
        <route edges="gneE3 -gneE1"/>
    </vehicle>
    <vehicle id="370" depart="333.00">
        <route edges="gneE1 -gneE2"/>
    </vehicle>
    <vehicle id="371" depart="333.90">
        <route edges="gneE3 -gneE2"/>
    </vehicle>
    <vehicle id="373" depart="335.70">
        <route edges="gneE3 -gneE1"/>
    </vehicle>
    <vehicle id="376" depart="338.40">
        <route edges="gneE3 -gneE1"/>
    </vehicle>
    <vehicle id="378" depart="340.20">
        <route edges="gneE3 -gneE1"/>
    </vehicle>
    <vehicle id="380" depart="342.00">
        <route edges="gneE1 -gneE2"/>
    </vehicle>
    <vehicle id="381" depart="342.90">
        <route edges="gneE1 -gneE2"/>
    </vehicle>
    <vehicle id="384" depart="345.60">
        <route edges="gneE2 -gneE1"/>
    </vehicle>
    <vehicle id="385" depart="346.50">
        <route edges="gneE3 -gneE2"/>
    </vehicle>
    <vehicle id="386" depart="347.40">
        <route edges="gneE2 -gneE1"/>
    </vehicle>
    <vehicle id="387" depart="348.30">
        <route edges="gneE2 -gneE1"/>
    </vehicle>
    <vehicle id="388" depart="349.20">
        <route edges="gneE3 -gneE2"/>
    </vehicle>
    <vehicle id="389" depart="350.10">
        <route edges="gneE3 -gneE2"/>
    </vehicle>
    <vehicle id="391" depart="351.90">
        <route edges="gneE3 -gneE2"/>
    </vehicle>
    <vehicle id="392" depart="352.80">
        <route edges="gneE2 -gneE1"/>
    </vehicle>
    <vehicle id="393" depart="353.70">
        <route edges="gneE1 -gneE2"/>
    </vehicle>
    <vehicle id="395" depart="355.50">
        <route edges="gneE3 -gneE2"/>
    </vehicle>
    <vehicle id="396" depart="356.40">
        <route edges="gneE2 -gneE1"/>
    </vehicle>
    <vehicle id="398" depart="358.20">
        <route edges="gneE2 -gneE1"/>
    </vehicle>
    <vehicle id="400" depart="360.00">
        <route edges="gneE2 -gneE1"/>
    </vehicle>
    <vehicle id="401" depart="360.90">
        <route edges="gneE2 -gneE1"/>
    </vehicle>
    <vehicle id="402" depart="361.80">
        <route edges="gneE3 -gneE2"/>
    </vehicle>
    <vehicle id="404" depart="363.60">
        <route edges="gneE1 -gneE2"/>
    </vehicle>
    <vehicle id="406" depart="365.40">
        <route edges="gneE1 -gneE2"/>
    </vehicle>
    <vehicle id="407" depart="366.30">
        <route edges="gneE3 -gneE1"/>
    </vehicle>
    <vehicle id="409" depart="368.10">
        <route edges="gneE3 -gneE2"/>
    </vehicle>
    <vehicle id="411" depart="369.90">
        <route edges="gneE1 -gneE2"/>
    </vehicle>
    <vehicle id="413" depart="371.70">
        <route edges="gneE3 -gneE1"/>
    </vehicle>
    <vehicle id="415" depart="373.50">
        <route edges="gneE3 -gneE2"/>
    </vehicle>
    <vehicle id="416" depart="374.40">
        <route edges="gneE3 -gneE1"/>
    </vehicle>
    <vehicle id="418" depart="376.20">
        <route edges="gneE2 -gneE1"/>
    </vehicle>
    <vehicle id="420" depart="378.00">
        <route edges="gneE3 -gneE2"/>
    </vehicle>
    <vehicle id="422" depart="379.80">
        <route edges="gneE3 -gneE2"/>
    </vehicle>
    <vehicle id="423" depart="380.70">
        <route edges="gneE3 -gneE2"/>
    </vehicle>
    <vehicle id="424" depart="381.60">
        <route edges="gneE2 -gneE1"/>
    </vehicle>
    <vehicle id="425" depart="382.50">
        <route edges="gneE2 -gneE1"/>
    </vehicle>
    <vehicle id="427" depart="384.30">
        <route edges="gneE3 -gneE2"/>
    </vehicle>
    <vehicle id="430" depart="387.00">
        <route edges="gneE2 -gneE1"/>
    </vehicle>
    <vehicle id="431" depart="387.90">
        <route edges="gneE3 -gneE2"/>
    </vehicle>
    <vehicle id="434" depart="390.60">
        <route edges="gneE3 -gneE1"/>
    </vehicle>
    <vehicle id="435" depart="391.50">
        <route edges="gneE3 -gneE2"/>
    </vehicle>
    <vehicle id="437" depart="393.30">
        <route edges="gneE3 -gneE2"/>
    </vehicle>
    <vehicle id="438" depart="394.20">
        <route edges="gneE1 -gneE2"/>
    </vehicle>
    <vehicle id="442" depart="397.80">
        <route edges="gneE3 -gneE1"/>
    </vehicle>
    <vehicle id="443" depart="398.70">
        <route edges="gneE1 -gneE2"/>
    </vehicle>
    <vehicle id="444" depart="399.60">
        <route edges="gneE3 -gneE1"/>
    </vehicle>
    <vehicle id="445" depart="400.50">
        <route edges="gneE3 -gneE2"/>
    </vehicle>
    <vehicle id="446" depart="401.40">
        <route edges="gneE1 -gneE2"/>
    </vehicle>
    <vehicle id="447" depart="402.30">
        <route edges="gneE2 -gneE1"/>
    </vehicle>
    <vehicle id="448" depart="403.20">
        <route edges="gneE3 -gneE2"/>
    </vehicle>
    <vehicle id="449" depart="404.10">
        <route edges="gneE2 -gneE1"/>
    </vehicle>
    <vehicle id="451" depart="405.90">
        <route edges="gneE2 -gneE1"/>
    </vehicle>
    <vehicle id="452" depart="406.80">
        <route edges="gneE2 -gneE1"/>
    </vehicle>
    <vehicle id="453" depart="407.70">
        <route edges="gneE1 -gneE2"/>
    </vehicle>
    <vehicle id="457" depart="411.30">
        <route edges="gneE3 -gneE1"/>
    </vehicle>
    <vehicle id="458" depart="412.20">
        <route edges="gneE3 -gneE2"/>
    </vehicle>
    <vehicle id="459" depart="413.10">
        <route edges="gneE1 -gneE2"/>
    </vehicle>
    <vehicle id="460" depart="414.00">
        <route edges="gneE3 -gneE1"/>
    </vehicle>
    <vehicle id="463" depart="416.70">
        <route edges="gneE3 -gneE1"/>
    </vehicle>
    <vehicle id="464" depart="417.60">
        <route edges="gneE3 -gneE1"/>
    </vehicle>
    <vehicle id="465" depart="418.50">
        <route edges="gneE3 -gneE1"/>
    </vehicle>
    <vehicle id="466" depart="419.40">
        <route edges="gneE3 -gneE2"/>
    </vehicle>
    <vehicle id="467" depart="420.30">
        <route edges="gneE2 -gneE1"/>
    </vehicle>
    <vehicle id="468" depart="421.20">
        <route edges="gneE3 -gneE1"/>
    </vehicle>
    <vehicle id="469" depart="422.10">
        <route edges="gneE2 -gneE1"/>
    </vehicle>
    <vehicle id="470" depart="423.00">
        <route edges="gneE3 -gneE2"/>
    </vehicle>
    <vehicle id="471" depart="423.90">
        <route edges="gneE2 -gneE1"/>
    </vehicle>
    <vehicle id="473" depart="425.70">
        <route edges="gneE3 -gneE2"/>
    </vehicle>
    <vehicle id="474" depart="426.60">
        <route edges="gneE3 -gneE2"/>
    </vehicle>
    <vehicle id="476" depart="428.40">
        <route edges="gneE2 -gneE1"/>
    </vehicle>
    <vehicle id="477" depart="429.30">
        <route edges="gneE2 -gneE1"/>
    </vehicle>
    <vehicle id="478" depart="430.20">
        <route edges="gneE1 -gneE2"/>
    </vehicle>
    <vehicle id="479" depart="431.10">
        <route edges="gneE1 -gneE2"/>
    </vehicle>
    <vehicle id="480" depart="432.00">
        <route edges="gneE1 -gneE2"/>
    </vehicle>
    <vehicle id="481" depart="432.90">
        <route edges="gneE3 -gneE2"/>
    </vehicle>
    <vehicle id="482" depart="433.80">
        <route edges="gneE2 -gneE1"/>
    </vehicle>
    <vehicle id="483" depart="434.70">
        <route edges="gneE3 -gneE2"/>
    </vehicle>
    <vehicle id="484" depart="435.60">
        <route edges="gneE2 -gneE1"/>
    </vehicle>
    <vehicle id="485" depart="436.50">
        <route edges="gneE3 -gneE1"/>
    </vehicle>
    <vehicle id="486" depart="437.40">