<?xml version="1.0" encoding="UTF-8"?>

<!-- generated on Sun May  6 19:02:40 2018 by SUMO duarouter Version 0.30.0
<?xml version="1.0" encoding="UTF-8"?>

<configuration xmlns:xsi="http://www.w3.org/2001/XMLSchema-instance" xsi:noNamespaceSchemaLocation="http://sumo.dlr.de/xsd/duarouterConfiguration.xsd">

    <input>
        <net-file value="simple_T/simple_T.net.xml"/>
        <route-files value="trips.trips.xml"/>
    </input>

    <output>
        <output-file value="simple_T/route/simple_T-1.5-2.rou.xml"/>
    </output>

    <processing>
        <ignore-errors value="true"/>
    </processing>

    <time>
        <begin value="0.0"/>
        <end value="1000.0"/>
    </time>

    <report>
        <no-warnings value="true"/>
        <no-step-log value="true"/>
    </report>

</configuration>
-->

<routes xmlns:xsi="http://www.w3.org/2001/XMLSchema-instance" xsi:noNamespaceSchemaLocation="http://sumo.dlr.de/xsd/routes_file.xsd">
    <vehicle id="0" depart="0.00">
        <route edges="gneE2 -gneE1"/>
    </vehicle>
    <vehicle id="2" depart="3.00">
        <route edges="gneE1 -gneE2"/>
    </vehicle>
    <vehicle id="3" depart="4.50">
        <route edges="gneE3 -gneE2"/>
    </vehicle>
    <vehicle id="5" depart="7.50">
        <route edges="gneE2 -gneE1"/>
    </vehicle>
    <vehicle id="8" depart="12.00">
        <route edges="gneE2 -gneE1"/>
    </vehicle>
    <vehicle id="9" depart="13.50">
        <route edges="gneE3 -gneE2"/>
    </vehicle>
    <vehicle id="10" depart="15.00">
        <route edges="gneE2 -gneE1"/>
    </vehicle>
    <vehicle id="11" depart="16.50">
        <route edges="gneE2 -gneE1"/>
    </vehicle>
    <vehicle id="12" depart="18.00">
        <route edges="gneE3 -gneE2"/>
    </vehicle>
    <vehicle id="14" depart="21.00">
        <route edges="gneE1 -gneE2"/>
    </vehicle>
    <vehicle id="15" depart="22.50">
        <route edges="gneE3 -gneE1"/>
    </vehicle>
    <vehicle id="16" depart="24.00">
        <route edges="gneE3 -gneE1"/>
    </vehicle>
    <vehicle id="18" depart="27.00">
        <route edges="gneE1 -gneE2"/>
    </vehicle>
    <vehicle id="20" depart="30.00">
        <route edges="gneE3 -gneE2"/>
    </vehicle>
    <vehicle id="22" depart="33.00">
        <route edges="gneE3 -gneE2"/>
    </vehicle>
    <vehicle id="23" depart="34.50">
        <route edges="gneE3 -gneE2"/>
    </vehicle>
    <vehicle id="24" depart="36.00">
        <route edges="gneE3 -gneE2"/>
    </vehicle>
    <vehicle id="29" depart="43.50">
        <route edges="gneE3 -gneE2"/>
    </vehicle>
    <vehicle id="30" depart="45.00">
        <route edges="gneE3 -gneE1"/>
    </vehicle>
    <vehicle id="33" depart="49.50">
        <route edges="gneE3 -gneE2"/>
    </vehicle>
    <vehicle id="34" depart="51.00">
        <route edges="gneE2 -gneE1"/>
    </vehicle>
    <vehicle id="35" depart="52.50">
        <route edges="gneE3 -gneE2"/>
    </vehicle>
    <vehicle id="36" depart="54.00">
        <route edges="gneE3 -gneE2"/>
    </vehicle>
    <vehicle id="38" depart="57.00">
        <route edges="gneE3 -gneE1"/>
    </vehicle>
    <vehicle id="40" depart="60.00">
        <route edges="gneE3 -gneE1"/>
    </vehicle>
    <vehicle id="41" depart="61.50">
        <route edges="gneE3 -gneE1"/>
    </vehicle>
    <vehicle id="42" depart="63.00">
        <route edges="gneE3 -gneE2"/>
    </vehicle>
    <vehicle id="45" depart="67.50">
        <route edges="gneE3 -gneE2"/>
    </vehicle>
    <vehicle id="46" depart="69.00">
        <route edges="gneE3 -gneE2"/>
    </vehicle>
    <vehicle id="48" depart="72.00">
        <route edges="gneE2 -gneE1"/>
    </vehicle>
    <vehicle id="52" depart="78.00">
        <route edges="gneE1 -gneE2"/>
    </vehicle>
    <vehicle id="53" depart="79.50">
        <route edges="gneE3 -gneE1"/>
    </vehicle>
    <vehicle id="54" depart="81.00">
        <route edges="gneE1 -gneE2"/>
    </vehicle>
    <vehicle id="55" depart="82.50">
        <route edges="gneE3 -gneE1"/>
    </vehicle>
    <vehicle id="57" depart="85.50">
        <route edges="gneE2 -gneE1"/>
    </vehicle>
    <vehicle id="58" depart="87.00">
        <route edges="gneE2 -gneE1"/>
    </vehicle>
    <vehicle id="59" depart="88.50">
        <route edges="gneE1 -gneE2"/>
    </vehicle>
    <vehicle id="61" depart="91.50">
        <route edges="gneE3 -gneE2"/>
    </vehicle>
    <vehicle id="62" depart="93.00">
        <route edges="gneE3 -gneE2"/>
    </vehicle>
    <vehicle id="64" depart="96.00">
        <route edges="gneE3 -gneE1"/>
    </vehicle>
    <vehicle id="65" depart="97.50">
        <route edges="gneE3 -gneE1"/>
    </vehicle>
    <vehicle id="66" depart="99.00">
        <route edges="gneE3 -gneE2"/>
    </vehicle>
    <vehicle id="67" depart="100.50">
        <route edges="gneE1 -gneE2"/>
    </vehicle>
    <vehicle id="68" depart="102.00">
        <route edges="gneE1 -gneE2"/>
    </vehicle>
    <vehicle id="69" depart="103.50">
        <route edges="gneE3 -gneE1"/>
    </vehicle>
    <vehicle id="70" depart="105.00">
        <route edges="gneE1 -gneE2"/>
    </vehicle>
    <vehicle id="71" depart="106.50">
        <route edges="gneE1 -gneE2"/>
    </vehicle>
    <vehicle id="72" depart="108.00">
        <route edges="gneE3 -gneE1"/>
    </vehicle>
    <vehicle id="77" depart="115.50">
        <route edges="gneE3 -gneE2"/>
    </vehicle>
    <vehicle id="78" depart="117.00">
        <route edges="gneE3 -gneE1"/>
    </vehicle>
    <vehicle id="79" depart="118.50">
        <route edges="gneE2 -gneE1"/>
    </vehicle>
    <vehicle id="80" depart="120.00">
        <route edges="gneE1 -gneE2"/>
    </vehicle>
    <vehicle id="81" depart="121.50">
        <route edges="gneE3 -gneE1"/>
    </vehicle>
    <vehicle id="84" depart="126.00">
        <route edges="gneE3 -gneE2"/>
    </vehicle>
    <vehicle id="85" depart="127.50">
        <route edges="gneE3 -gneE1"/>
    </vehicle>
    <vehicle id="88" depart="132.00">
        <route edges="gneE1 -gneE2"/>
    </vehicle>
    <vehicle id="89" depart="133.50">
        <route edges="gneE1 -gneE2"/>
    </vehicle>
    <vehicle id="90" depart="135.00">
        <route edges="gneE3 -gneE1"/>
    </vehicle>
    <vehicle id="91" depart="136.50">
        <route edges="gneE3 -gneE2"/>
    </vehicle>
    <vehicle id="92" depart="138.00">
        <route edges="gneE3 -gneE2"/>
    </vehicle>
    <vehicle id="93" depart="139.50">
        <route edges="gneE1 -gneE2"/>
    </vehicle>
    <vehicle id="94" depart="141.00">
        <route edges="gneE3 -gneE2"/>
    </vehicle>
    <vehicle id="96" depart="144.00">
        <route edges="gneE3 -gneE2"/>
    </vehicle>
    <vehicle id="99" depart="148.50">
        <route edges="gneE3 -gneE1"/>
    </vehicle>
    <vehicle id="100" depart="150.00">
        <route edges="gneE3 -gneE1"/>
    </vehicle>
    <vehicle id="101" depart="151.50">
        <route edges="gneE1 -gneE2"/>
    </vehicle>
    <vehicle id="102" depart="153.00">
        <route edges="gneE3 -gneE1"/>
    </vehicle>
    <vehicle id="103" depart="154.50">
        <route edges="gneE3 -gneE2"/>
    </vehicle>
    <vehicle id="105" depart="157.50">
        <route edges="gneE1 -gneE2"/>
    </vehicle>
    <vehicle id="108" depart="162.00">
        <route edges="gneE1 -gneE2"/>
    </vehicle>
    <vehicle id="113" depart="169.50">
        <route edges="gneE3 -gneE1"/>
    </vehicle>
    <vehicle id="114" depart="171.00">
        <route edges="gneE2 -gneE1"/>
    </vehicle>
    <vehicle id="115" depart="172.50">
        <route edges="gneE3 -gneE2"/>
    </vehicle>
    <vehicle id="117" depart="175.50">
        <route edges="gneE2 -gneE1"/>
    </vehicle>
    <vehicle id="119" depart="178.50">
        <route edges="gneE2 -gneE1"/>
    </vehicle>
    <vehicle id="120" depart="180.00">
        <route edges="gneE3 -gneE2"/>
    </vehicle>
    <vehicle id="123" depart="184.50">
        <route edges="gneE3 -gneE2"/>
    </vehicle>
    <vehicle id="124" depart="186.00">
        <route edges="gneE2 -gneE1"/>
    </vehicle>
    <vehicle id="125" depart="187.50">
        <route edges="gneE1 -gneE2"/>
    </vehicle>
    <vehicle id="128" depart="192.00">
        <route edges="gneE3 -gneE2"/>
    </vehicle>
    <vehicle id="129" depart="193.50">
        <route edges="gneE1 -gneE2"/>
    </vehicle>
    <vehicle id="133" depart="199.50">
        <route edges="gneE1 -gneE2"/>
    </vehicle>
    <vehicle id="135" depart="202.50">
        <route edges="gneE2 -gneE1"/>
    </vehicle>
    <vehicle id="137" depart="205.50">
        <route edges="gneE2 -gneE1"/>
    </vehicle>
    <vehicle id="138" depart="207.00">
        <route edges="gneE1 -gneE2"/>
    </vehicle>
    <vehicle id="140" depart="210.00">
        <route edges="gneE1 -gneE2"/>
    </vehicle>
    <vehicle id="141" depart="211.50">
        <route edges="gneE1 -gneE2"/>
    </vehicle>
    <vehicle id="142" depart="213.00">
        <route edges="gneE3 -gneE1"/>
    </vehicle>
    <vehicle id="143" depart="214.50">
        <route edges="gneE2 -gneE1"/>
    </vehicle>
    <vehicle id="144" depart="216.00">
        <route edges="gneE3 -gneE2"/>
    </vehicle>
    <vehicle id="145" depart="217.50">
        <route edges="gneE2 -gneE1"/>
    </vehicle>
    <vehicle id="146" depart="219.00">
        <route edges="gneE1 -gneE2"/>
    </vehicle>
    <vehicle id="147" depart="220.50">
        <route edges="gneE3 -gneE2"/>
    </vehicle>
    <vehicle id="148" depart="222.00">
        <route edges="gneE1 -gneE2"/>
    </vehicle>
    <vehicle id="150" depart="225.00">
        <route edges="gneE3 -gneE2"/>
    </vehicle>
    <vehicle id="151" depart="226.50">
        <route edges="gneE2 -gneE1"/>
    </vehicle>
    <vehicle id="153" depart="229.50">
        <route edges="gneE3 -gneE1"/>
    </vehicle>
    <vehicle id="154" depart="231.00">
        <route edges="gneE2 -gneE1"/>
    </vehicle>
    <vehicle id="155" depart="232.50">
        <route edges="gneE2 -gneE1"/>
    </vehicle>
    <vehicle id="156" depart="234.00">
        <route edges="gneE3 -gneE2"/>
    </vehicle>
    <vehicle id="157" depart="235.50">
        <route edges="gneE2 -gneE1"/>
    </vehicle>
    <vehicle id="158" depart="237.00">
        <route edges="gneE1 -gneE2"/>
    </vehicle>
    <vehicle id="159" depart="238.50">
        <route edges="gneE3 -gneE1"/>
    </vehicle>
    <vehicle id="160" depart="240.00">
        <route edges="gneE1 -gneE2"/>
    </vehicle>
    <vehicle id="162" depart="243.00">
        <route edges="gneE3 -gneE2"/>
    </vehicle>
    <vehicle id="163" depart="244.50">
        <route edges="gneE2 -gneE1"/>
    </vehicle>
    <vehicle id="164" depart="246.00">
        <route edges="gneE1 -gneE2"/>
    </vehicle>
    <vehicle id="165" depart="247.50">
        <route edges="gneE2 -gneE1"/>
    </vehicle>
    <vehicle id="166" depart="249.00">
        <route edges="gneE1 -gneE2"/>
    </vehicle>
    <vehicle id="167" depart="250.50">
        <route edges="gneE1 -gneE2"/>
    </vehicle>
    <vehicle id="168" depart="252.00">
        <route edges="gneE3 -gneE2"/>
    </vehicle>
    <vehicle id="169" depart="253.50">
        <route edges="gneE1 -gneE2"/>
    </vehicle>
    <vehicle id="170" depart="255.00">
        <route edges="gneE3 -gneE2"/>
    </vehicle>
    <vehicle id="171" depart="256.50">
        <route edges="gneE2 -gneE1"/>
    </vehicle>
    <vehicle id="173" depart="259.50">
        <route edges="gneE2 -gneE1"/>
    </vehicle>
    <vehicle id="174" depart="261.00">
        <route edges="gneE3 -gneE2"/>
    </vehicle>
    <vehicle id="176" depart="264.00">
        <route edges="gneE3 -gneE2"/>
    </vehicle>
    <vehicle id="177" depart="265.50">
        <route edges="gneE3 -gneE1"/>
    </vehicle>
    <vehicle id="178" depart="267.00">
        <route edges="gneE3 -gneE1"/>
    </vehicle>
    <vehicle id="182" depart="273.00">
        <route edges="gneE3 -gneE1"/>
    </vehicle>
    <vehicle id="185" depart="277.50">
        <route edges="gneE2 -gneE1"/>
    </vehicle>
    <vehicle id="186" depart="279.00">
        <route edges="gneE3 -gneE2"/>
    </vehicle>
    <vehicle id="187" depart="280.50">
        <route edges="gneE3 -gneE2"/>
    </vehicle>
    <vehicle id="191" depart="286.50">
        <route edges="gneE1 -gneE2"/>
    </vehicle>
    <vehicle id="192" depart="288.00">
        <route edges="gneE2 -gneE1"/>
    </vehicle>
    <vehicle id="193" depart="289.50">
        <route edges="gneE3 -gneE1"/>
    </vehicle>
    <vehicle id="194" depart="291.00">
        <route edges="gneE3 -gneE2"/>
    </vehicle>
    <vehicle id="196" depart="294.00">
        <route edges="gneE1 -gneE2"/>
    </vehicle>
    <vehicle id="197" depart="295.50">
        <route edges="gneE3 -gneE2"/>
    </vehicle>
    <vehicle id="198" depart="297.00">
        <route edges="gneE1 -gneE2"/>
    </vehicle>
    <vehicle id="199" depart="298.50">
        <route edges="gneE1 -gneE2"/>
    </vehicle>
    <vehicle id="200" depart="300.00">
        <route edges="gneE3 -gneE1"/>
    </vehicle>
    <vehicle id="201" depart="301.50">
        <route edges="gneE1 -gneE2"/>
    </vehicle>
    <vehicle id="202" depart="303.00">
        <route edges="gneE2 -gneE1"/>
    </vehicle>
    <vehicle id="203" depart="304.50">
        <route edges="gneE3 -gneE1"/>
    </vehicle>
    <vehicle id="204" depart="306.00">
        <route edges="gneE3 -gneE2"/>
    </vehicle>
    <vehicle id="205" depart="307.50">
        <route edges="gneE1 -gneE2"/>
    </vehicle>
    <vehicle id="206" depart="309.00">
        <route edges="gneE2 -gneE1"/>
    </vehicle>
    <vehicle id="208" depart="312.00">
        <route edges="gneE3 -gneE2"/>
    </vehicle>
    <vehicle id="209" depart="313.50">
        <route edges="gneE3 -gneE1"/>
    </vehicle>
    <vehicle id="211" depart="316.50">
        <route edges="gneE3 -gneE1"/>
    </vehicle>
    <vehicle id="212" depart="318.00">
        <route edges="gneE3 -gneE2"/>
    </vehicle>
    <vehicle id="214" depart="321.00">
        <route edges="gneE3 -gneE1"/>
    </vehicle>
    <vehicle id="216" depart="324.00">
        <route edges="gneE1 -gneE2"/>
    </vehicle>
    <vehicle id="217" depart="325.50">
        <route edges="gneE3 -gneE1"/>
    </vehicle>
    <vehicle id="218" depart="327.00">
        <route edges="gneE1 -gneE2"/>
    </vehicle>
    <vehicle id="219" depart="328.50">
        <route edges="gneE1 -gneE2"/>
    </vehicle>
    <vehicle id="220" depart="330.00">
        <route edges="gneE1 -gneE2"/>
    </vehicle>
    <vehicle id="221" depart="331.50">
        <route edges="gneE2 -gneE1"/>
    </vehicle>
    <vehicle id="222" depart="333.00">
        <route edges="gneE3 -gneE1"/>
    </vehicle>
    <vehicle id="223" depart="334.50">
        <route edges="gneE3 -gneE2"/>
    </vehicle>
    <vehicle id="224" depart="336.00">
        <route edges="gneE1 -gneE2"/>
    </vehicle>
    <vehicle id="227" depart="340.50">
        <route edges="gneE2 -gneE1"/>
    </vehicle>
    <vehicle id="228" depart="342.00">
        <route edges="gneE1 -gneE2"/>
    </vehicle>
    <vehicle id="229" depart="343.50">
        <route edges="gneE3 -gneE2"/>
    </vehicle>
    <vehicle id="231" depart="346.50">
        <route edges="gneE2 -gneE1"/>
    </vehicle>
    <vehicle id="232" depart="348.00">
        <route edges="gneE1 -gneE2"/>
    </vehicle>
    <vehicle id="233" depart="349.50">
        <route edges="gneE1 -gneE2"/>
    </vehicle>
    <vehicle id="235" depart="352.50">
        <route edges="gneE3 -gneE2"/>
    </vehicle>
    <vehicle id="239" depart="358.50">
        <route edges="gneE2 -gneE1"/>
    </vehicle>
    <vehicle id="242" depart="363.00">
        <route edges="gneE1 -gneE2"/>
    </vehicle>
    <vehicle id="244" depart="366.00">
        <route edges="gneE2 -gneE1"/>
    </vehicle>
    <vehicle id="245" depart="367.50">
        <route edges="gneE3 -gneE2"/>
    </vehicle>
    <vehicle id="246" depart="369.00">
        <route edges="gneE1 -gneE2"/>
    </vehicle>
    <vehicle id="247" depart="370.50">
        <route edges="gneE3 -gneE1"/>
    </vehicle>
    <vehicle id="248" depart="372.00">
        <route edges="gneE3 -gneE2"/>
    </vehicle>
    <vehicle id="249" depart="373.50">
        <route edges="gneE2 -gneE1"/>
    </vehicle>
    <vehicle id="250" depart="375.00">
        <route edges="gneE2 -gneE1"/>
    </vehicle>
    <vehicle id="251" depart="376.50">
        <route edges="gneE1 -gneE2"/>
    </vehicle>
    <vehicle id="252" depart="378.00">
        <route edges="gneE2 -gneE1"/>
    </vehicle>
    <vehicle id="254" depart="381.00">
        <route edges="gneE3 -gneE2"/>
    </vehicle>
    <vehicle id="256" depart="384.00">
        <route edges="gneE1 -gneE2"/>
    </vehicle>
    <vehicle id="257" depart="385.50">
        <route edges="gneE2 -gneE1"/>
    </vehicle>
    <vehicle id="259" depart="388.50">
        <route edges="gneE3 -gneE2"/>
    </vehicle>
    <vehicle id="260" depart="390.00">
        <route edges="gneE2 -gneE1"/>
    </vehicle>
    <vehicle id="262" depart="393.00">
        <route edges="gneE1 -gneE2"/>
    </vehicle>
    <vehicle id="265" depart="397.50">
        <route edges="gneE1 -gneE2"/>
    </vehicle>
    <vehicle id="267" depart="400.50">
        <route edges="gneE3 -gneE1"/>
    </vehicle>
    <vehicle id="268" depart="402.00">
        <route edges="gneE2 -gneE1"/>
    </vehicle>
    <vehicle id="269" depart="403.50">
        <route edges="gneE3 -gneE1"/>
    </vehicle>
    <vehicle id="270" depart="405.00">
        <route edges="gneE2 -gneE1"/>
    </vehicle>
    <vehicle id="271" depart="406.50">
        <route edges="gneE3 -gneE1"/>
    </vehicle>
    <vehicle id="272" depart="408.00">
        <route edges="gneE3 -gneE2"/>
    </vehicle>
    <vehicle id="273" depart="409.50">
        <route edges="gneE3 -gneE1"/>
    </vehicle>
    <vehicle id="275" depart="412.50">
        <route edges="gneE2 -gneE1"/>
    </vehicle>
    <vehicle id="276" depart="414.00">
        <route edges="gneE3 -gneE2"/>
    </vehicle>
    <vehicle id="278" depart="417.00">
        <route edges="gneE1 -gneE2"/>
    </vehicle>
    <vehicle id="279" depart="418.50">
        <route edges="gneE2 -gneE1"/>
    </vehicle>
    <vehicle id="282" depart="423.00">
        <route edges="gneE3 -gneE2"/>
    </vehicle>
    <vehicle id="283" depart="424.50">
        <route edges="gneE3 -gneE1"/>
    </vehicle>
    <vehicle id="284" depart="426.00">
        <route edges="gneE1 -gneE2"/>
    </vehicle>
    <vehicle id="287" depart="430.50">
        <route edges="gneE2 -gneE1"/>
    </vehicle>
    <vehicle id="289" depart="433.50">
        <route edges="gneE3 -gneE2"/>
    </vehicle>
    <vehicle id="290" depart="435.00">
        <route edges="gneE3 -gneE2"/>
    </vehicle>
    <vehicle id="291" depart="436.50">
        <route edges="gneE3 -gneE2"/>
    </vehicle>
    <vehicle id="293" depart="439.50">
        <route edges="gneE3 -gneE1"/>
    </vehicle>
    <vehicle id="294" depart="441.00">
        <route edges="gneE3 -gneE1"/>
    </vehicle>
    <vehicle id="295" depart="442.50">
        <route edges="gneE2 -gneE1"/>
    </vehicle>
    <vehicle id="296" depart="444.00">
        <route edges="gneE3 -gneE1"/>
    </vehicle>
    <vehicle id="298" depart="447.00">
        <route edges="gneE2 -gneE1"/>
    </vehicle>
    <vehicle id="299" depart="448.50">
        <route edges="gneE1 -gneE2"/>
    </vehicle>
    <vehicle id="301" depart="451.50">
        <route edges="gneE1 -gneE2"/>
    </vehicle>
    <vehicle id="302" depart="453.00">
        <route edges="gneE3 -gneE1"/>
    </vehicle>
    <vehicle id="303" depart="454.50">
        <route edges="gneE1 -gneE2"/>
    </vehicle>
    <vehicle id="304" depart="456.00">
        <route edges="gneE3 -gneE2"/>
    </vehicle>
    <vehicle id="305" depart="457.50">
        <route edges="gneE3 -gneE1"/>
    </vehicle>
    <vehicle id="306" depart="459.00">
        <route edges="gneE3 -gneE2"/>
    </vehicle>
    <vehicle id="307" depart="460.50">
        <route edges="gneE3 -gneE2"/>
    </vehicle>
    <vehicle id="310" depart="465.00">
        <route edges="gneE2 -gneE1"/>
    </vehicle>
    <vehicle id="311" depart="466.50">
        <route edges="gneE2 -gneE1"/>
    </vehicle>
    <vehicle id="313" depart="469.50">
        <route edges="gneE2 -gneE1"/>
    </vehicle>
    <vehicle id="314" depart="471.00">
        <route edges="gneE2 -gneE1"/>
    </vehicle>
    <vehicle id="315" depart="472.50">
        <route edges="gneE3 -gneE1"/>
    </vehicle>
    <vehicle id="316" depart="474.00">
        <route edges="gneE2 -gneE1"/>
    </vehicle>
    <vehicle id="318" depart="477.00">
        <route edges="gneE2 -gneE1"/>
    </vehicle>
    <vehicle id="319" depart="478.50">
        <route edges="gneE3 -gneE2"/>
    </vehicle>
    <vehicle id="320" depart="480.00">
        <route edges="gneE2 -gneE1"/>
    </vehicle>
    <vehicle id="322" depart="483.00">
        <route edges="gneE2 -gneE1"/>
    </vehicle>
    <vehicle id="324" depart="486.00">
        <route edges="gneE2 -gneE1"/>
    </vehicle>
    <vehicle id="325" depart="487.50">
        <route edges="gneE2 -gneE1"/>
    </vehicle>
    <vehicle id="327" depart="490.50">
        <route edges="gneE1 -gneE2"/>
    </vehicle>
    <vehicle id="328" depart="492.00">
        <route edges="gneE3 -gneE1"/>
    </vehicle>
    <vehicle id="330" depart="495.00">
        <route edges="gneE3 -gneE2"/>
    </vehicle>
    <vehicle id="331" depart="496.50">
        <route edges="gneE3 -gneE2"/>
    </vehicle>
    <vehicle id="333" depart="499.50">
        <route edges="gneE3 -gneE1"/>
    </vehicle>
    <vehicle id="334" depart="501.00">
        <route edges="gneE1 -gneE2"/>
    </vehicle>
    <vehicle id="340" depart="510.00">
        <route edges="gneE2 -gneE1"/>
    </vehicle>
    <vehicle id="342" depart="513.00">
        <route edges="gneE1 -gneE2"/>
    </vehicle>
    <vehicle id="344" depart="516.00">
        <route edges="gneE3 -gneE2"/>
    </vehicle>
    <vehicle id="345" depart="517.50">
        <route edges="gneE2 -gneE1"/>
    </vehicle>
    <vehicle id="346" depart="519.00">
        <route edges="gneE3 -gneE2"/>
    </vehicle>
    <vehicle id="347" depart="520.50">
        <route edges="gneE3 -gneE2"/>
    </vehicle>
    <vehicle id="352" depart="528.00">
        <route edges="gneE3 -gneE1"/>
    </vehicle>
    <vehicle id="353" depart="529.50">
        <route edges="gneE3 -gneE1"/>
    </vehicle>
    <vehicle id="357" depart="535.50">
        <route edges="gneE2 -gneE1"/>
    </vehicle>
    <vehicle id="358" depart="537.00">
        <route edges="gneE3 -gneE2"/>
    </vehicle>
    <vehicle id="359" depart="538.50">
        <route edges="gneE1 -gneE2"/>
    </vehicle>
    <vehicle id="360" depart="540.00">
        <route edges="gneE2 -gneE1"/>
    </vehicle>
    <vehicle id="361" depart="541.50">
        <route edges="gneE3 -gneE2"/>
    </vehicle>
    <vehicle id="362" depart="543.00">
        <route edges="gneE2 -gneE1"/>
    </vehicle>
    <vehicle id="363" depart="544.50">
        <route edges="gneE3 -gneE2"/>
    </vehicle>
    <vehicle id="364" depart="546.00">
        <route edges="gneE3 -gneE1"/>
    </vehicle>
    <vehicle id="365" depart="547.50">
        <route edges="gneE3 -gneE2"/>
    </vehicle>
    <vehicle id="366" depart="549.00">
        <route edges="gneE3 -gneE1"/>
    </vehicle>
    <vehicle id="368" depart="552.00">
        <route edges="gneE1 -gneE2"/>
    </vehicle>
    <vehicle id="369" depart="553.50">
        <route edges="gneE3 -gneE1"/>
    </vehicle>
    <vehicle id="370" depart="555.00">
        <route edges="gneE2 -gneE1"/>
    </vehicle>
    <vehicle id="372" depart="558.00">
        <route edges="gneE1 -gneE2"/>
    </vehicle>
    <vehicle id="374" depart="561.00">
        <route edges="gneE1 -gneE2"/>
    </vehicle>
    <vehicle id="375" depart="562.50">
        <route edges="gneE1 -gneE2"/>
    </vehicle>
    <vehicle id="379" depart="568.50">
        <route edges="gneE2 -gneE1"/>
    </vehicle>
    <vehicle id="382" depart="573.00">
        <route edges="gneE2 -gneE1"/>
    </vehicle>
    <vehicle id="383" depart="574.50">
        <route edges="gneE2 -gneE1"/>
    </vehicle>
    <vehicle id="384" depart="576.00">
        <route edges="gneE3 -gneE1"/>
    </vehicle>
    <vehicle id="385" depart="577.50">
        <route edges="gneE3 -gneE1"/>
    </vehicle>
    <vehicle id="389" depart="583.50">
        <route edges="gneE3 -gneE2"/>
    </vehicle>
    <vehicle id="392" depart="588.00">
        <route edges="gneE1 -gneE2"/>
    </vehicle>
    <vehicle id="393" depart="589.50">
        <route edges="gneE2 -gneE1"/>
    </vehicle>
    <vehicle id="394" depart="591.00">
        <route edges="gneE3 -gneE2"/>
    </vehicle>
    <vehicle id="397" depart="595.50">
        <route edges="gneE2 -gneE1"/>
    </vehicle>
    <vehicle id="398" depart="597.00">
        <route edges="gneE1 -gneE2"/>
    </vehicle>
    <vehicle id="401" depart="601.50">
        <route edges="gneE2 -gneE1"/>
    </vehicle>
    <vehicle id="403" depart="604.50">
        <route edges="gneE2 -gneE1"/>
    </vehicle>
    <vehicle id="405" depart="607.50">
        <route edges="gneE3 -gneE2"/>
    </vehicle>
    <vehicle id="406" depart="609.00">
        <route edges="gneE3 -gneE1"/>
    </vehicle>
    <vehicle id="407" depart="610.50">
        <route edges="gneE2 -gneE1"/>
    </vehicle>
    <vehicle id="408" depart="612.00">
        <route edges="gneE3 -gneE1"/>
    </vehicle>
    <vehicle id="411" depart="616.50">
        <route edges="gneE3 -gneE1"/>
    </vehicle>
    <vehicle id="412" depart="618.00">
        <route edges="gneE1 -gneE2"/>
    </vehicle>
    <vehicle id="414" depart="621.00">
        <route edges="gneE1 -gneE2"/>
    </vehicle>
    <vehicle id="415" depart="622.50">
        <route edges="gneE3 -gneE2"/>
    </vehicle>
    <vehicle id="416" depart="624.00">
        <route edges="gneE3 -gneE2"/>
    </vehicle>
    <vehicle id="417" depart="625.50">
        <route edges="gneE3 -gneE1"/>
    </vehicle>
    <vehicle id="419" depart="628.50">
        <route edges="gneE3 -gneE2"/>
    </vehicle>
    <vehicle id="420" depart="630.00">
        <route edges="gneE2 -gneE1"/>
    </vehicle>
    <vehicle id="421" depart="631.50">
        <route edges="gneE2 -gneE1"/>
    </vehicle>
    <vehicle id="423" depart="634.50">
        <route edges="gneE3 -gneE1"/>
    </vehicle>
    <vehicle id="427" depart="640.50">
        <route edges="gneE3 -gneE2"/>
    </vehicle>
    <vehicle id="429" depart="643.50">
        <route edges="gneE2 -gneE1"/>
    </vehicle>
    <vehicle id="431" depart="646.50">
        <route edges="gneE3 -gneE2"/>
    </vehicle>
    <vehicle id="432" depart="648.00">
        <route edges="gneE3 -gneE1"/>
    </vehicle>
    <vehicle id="435" depart="652.50">
        <route edges="gneE1 -gneE2"/>
    </vehicle>
    <vehicle id="436" depart="654.00">
        <route edges="gneE3 -gneE1"/>
    </vehicle>
    <vehicle id="437" depart="655.50">
        <route edges="gneE3 -gneE1"/>
    </vehicle>
    <vehicle id="438" depart="657.00">
        <route edges="gneE3 -gneE2"/>
    </vehicle>
    <vehicle id="441" depart="661.50">
        <route edges="gneE1 -gneE2"/>
    </vehicle>
    <vehicle id="442" depart="663.00">
        <route edges="gneE3 -gneE2"/>
    </vehicle>
    <vehicle id="443" depart="664.50">
        <route edges="gneE1 -gneE2"/>
    </vehicle>
    <vehicle id="444" depart="666.00">
        <route edges="gneE3 -gneE2"/>
    </vehicle>
    <vehicle id="445" depart="667.50">
        <route edges="gneE1 -gneE2"/>
    </vehicle>
    <vehicle id="447" depart="670.50">
        <route edges="gneE2 -gneE1"/>
    </vehicle>
    <vehicle id="450" depart="675.00">
        <route edges="gneE3 -gneE2"/>
    </vehicle>
    <vehicle id="453" depart="679.50">
        <route edges="gneE2 -gneE1"/>
    </vehicle>
    <vehicle id="456" depart="684.00">
        <route edges="gneE2 -gneE1"/>
    </vehicle>
    <vehicle id="458" depart="687.00">
        <route edges="gneE3 -gneE2"/>
    </vehicle>
    <vehicle id="459" depart="688.50">
        <route edges="gneE2 -gneE1"/>
    </vehicle>
    <vehicle id="462" depart="693.00">
        <route edges="gneE2 -gneE1"/>
    </vehicle>
    <vehicle id="463" depart="694.50">
        <route edges="gneE2 -gneE1"/>
    </vehicle>
    <vehicle id="464" depart="696.00">
        <route edges="gneE1 -gneE2"/>
    </vehicle>
    <vehicle id="465" depart="697.50">
        <route edges="gneE2 -gneE1"/>
    </vehicle>
    <vehicle id="466" depart="699.00">
        <route edges="gneE3 -gneE1"/>
    </vehicle>
    <vehicle id="468" depart="702.00">
        <route edges="gneE3 -gneE1"/>
    </vehicle>
    <vehicle id="470" depart="705.00">
        <route edges="gneE2 -gneE1"/>
    </vehicle>
    <vehicle id="473" depart="709.50">
        <route edges="gneE3 -gneE1"/>
    </vehicle>
    <vehicle id="474" depart="711.00">
        <route edges="gneE2 -gneE1"/>
    </vehicle>
    <vehicle id="475" depart="712.50">
        <route edges="gneE3 -gneE2"/>
    </vehicle>
    <vehicle id="477" depart="715.50">
        <route edges="gneE3 -gneE2"/>
    </vehicle>
    <vehicle id="478" depart="717.00">
        <route edges="gneE2 -gneE1"/>
    </vehicle>
    <vehicle id="481" depart="721.50">
        <route edges="gneE3 -gneE2"/>
    </vehicle>
    <vehicle id="483" depart="724.50">
        <route edges="gneE1 -gneE2"/>
    </vehicle>
    <vehicle id="484" depart="726.00">
        <route edges="gneE1 -gneE2"/>
    </vehicle>
    <vehicle id="485" depart="727.50">
        <route edges="gneE1 -gneE2"/>
    </vehicle>
    <vehicle id="486" depart="729.00">
        <route edges="gneE1 -gneE2"/>
    </vehicle>
    <vehicle id="487" depart="730.50">
        <route edges="gneE3 -gneE1"/>
    </vehicle>
    <vehicle id="488" depart="732.00">
        <route edges="gneE3 -gneE1"/>
    </vehicle>
    <vehicle id="490" depart="735.00">
        <route edges="gneE3 -gneE2"/>
    </vehicle>
    <vehicle id="491" depart="736.50">
        <route edges="gneE3 -gneE2"/>
    </vehicle>