<?xml version="1.0" encoding="UTF-8"?>

<!-- generated on Sun May  6 21:21:24 2018 by SUMO duarouter Version 0.30.0
<?xml version="1.0" encoding="UTF-8"?>

<configuration xmlns:xsi="http://www.w3.org/2001/XMLSchema-instance" xsi:noNamespaceSchemaLocation="http://sumo.dlr.de/xsd/duarouterConfiguration.xsd">

    <input>
        <net-file value="simple_T/simple_T.net.xml"/>
        <route-files value="trips.trips.xml"/>
    </input>

    <output>
        <output-file value="simple_T/route/simple_T-0.9-0.rou.xml"/>
    </output>

    <processing>
        <ignore-errors value="true"/>
    </processing>

    <time>
        <begin value="0.0"/>
        <end value="1000.0"/>
    </time>

    <report>
        <no-warnings value="true"/>
        <no-step-log value="true"/>
    </report>

</configuration>
-->

<routes xmlns:xsi="http://www.w3.org/2001/XMLSchema-instance" xsi:noNamespaceSchemaLocation="http://sumo.dlr.de/xsd/routes_file.xsd">
    <vehicle id="0" depart="0.00">
        <route edges="gneE1 -gneE2"/>
    </vehicle>
    <vehicle id="1" depart="0.90">
        <route edges="gneE1 -gneE2"/>
    </vehicle>
    <vehicle id="2" depart="1.80">
        <route edges="gneE2 -gneE1"/>
    </vehicle>
    <vehicle id="3" depart="2.70">
        <route edges="gneE2 -gneE1"/>
    </vehicle>
    <vehicle id="4" depart="3.60">
        <route edges="gneE1 -gneE2"/>
    </vehicle>
    <vehicle id="5" depart="4.50">
        <route edges="gneE2 -gneE1"/>
    </vehicle>
    <vehicle id="7" depart="6.30">
        <route edges="gneE3 -gneE1"/>
    </vehicle>
    <vehicle id="8" depart="7.20">
        <route edges="gneE1 -gneE2"/>
    </vehicle>
    <vehicle id="9" depart="8.10">
        <route edges="gneE2 -gneE1"/>
    </vehicle>
    <vehicle id="12" depart="10.80">
        <route edges="gneE1 -gneE2"/>
    </vehicle>
    <vehicle id="13" depart="11.70">
        <route edges="gneE3 -gneE2"/>
    </vehicle>
    <vehicle id="14" depart="12.60">
        <route edges="gneE3 -gneE1"/>
    </vehicle>
    <vehicle id="15" depart="13.50">
        <route edges="gneE3 -gneE2"/>
    </vehicle>
    <vehicle id="16" depart="14.40">
        <route edges="gneE3 -gneE2"/>
    </vehicle>
    <vehicle id="17" depart="15.30">
        <route edges="gneE1 -gneE2"/>
    </vehicle>
    <vehicle id="20" depart="18.00">
        <route edges="gneE3 -gneE2"/>
    </vehicle>
    <vehicle id="21" depart="18.90">
        <route edges="gneE1 -gneE2"/>
    </vehicle>
    <vehicle id="23" depart="20.70">
        <route edges="gneE3 -gneE1"/>
    </vehicle>
    <vehicle id="27" depart="24.30">
        <route edges="gneE2 -gneE1"/>
    </vehicle>
    <vehicle id="28" depart="25.20">
        <route edges="gneE2 -gneE1"/>
    </vehicle>
    <vehicle id="30" depart="27.00">
        <route edges="gneE3 -gneE2"/>
    </vehicle>
    <vehicle id="31" depart="27.90">
        <route edges="gneE3 -gneE2"/>
    </vehicle>
    <vehicle id="33" depart="29.70">
        <route edges="gneE1 -gneE2"/>
    </vehicle>
    <vehicle id="34" depart="30.60">
        <route edges="gneE3 -gneE1"/>
    </vehicle>
    <vehicle id="38" depart="34.20">
        <route edges="gneE3 -gneE1"/>
    </vehicle>
    <vehicle id="39" depart="35.10">
        <route edges="gneE2 -gneE1"/>
    </vehicle>
    <vehicle id="40" depart="36.00">
        <route edges="gneE3 -gneE1"/>
    </vehicle>
    <vehicle id="41" depart="36.90">
        <route edges="gneE1 -gneE2"/>
    </vehicle>
    <vehicle id="42" depart="37.80">
        <route edges="gneE2 -gneE1"/>
    </vehicle>
    <vehicle id="43" depart="38.70">
        <route edges="gneE3 -gneE2"/>
    </vehicle>
    <vehicle id="45" depart="40.50">
        <route edges="gneE2 -gneE1"/>
    </vehicle>
    <vehicle id="46" depart="41.40">
        <route edges="gneE3 -gneE1"/>
    </vehicle>
    <vehicle id="47" depart="42.30">
        <route edges="gneE2 -gneE1"/>
    </vehicle>
    <vehicle id="50" depart="45.00">
        <route edges="gneE1 -gneE2"/>
    </vehicle>
    <vehicle id="51" depart="45.90">
        <route edges="gneE1 -gneE2"/>
    </vehicle>
    <vehicle id="52" depart="46.80">
        <route edges="gneE3 -gneE1"/>
    </vehicle>
    <vehicle id="53" depart="47.70">
        <route edges="gneE2 -gneE1"/>
    </vehicle>
    <vehicle id="57" depart="51.30">
        <route edges="gneE1 -gneE2"/>
    </vehicle>
    <vehicle id="59" depart="53.10">
        <route edges="gneE1 -gneE2"/>
    </vehicle>
    <vehicle id="60" depart="54.00">
        <route edges="gneE3 -gneE1"/>
    </vehicle>
    <vehicle id="62" depart="55.80">
        <route edges="gneE2 -gneE1"/>
    </vehicle>
    <vehicle id="63" depart="56.70">
        <route edges="gneE3 -gneE2"/>
    </vehicle>
    <vehicle id="65" depart="58.50">
        <route edges="gneE3 -gneE1"/>
    </vehicle>
    <vehicle id="66" depart="59.40">
        <route edges="gneE2 -gneE1"/>
    </vehicle>
    <vehicle id="70" depart="63.00">
        <route edges="gneE3 -gneE1"/>
    </vehicle>
    <vehicle id="71" depart="63.90">
        <route edges="gneE3 -gneE1"/>
    </vehicle>
    <vehicle id="72" depart="64.80">
        <route edges="gneE3 -gneE2"/>
    </vehicle>
    <vehicle id="73" depart="65.70">
        <route edges="gneE3 -gneE1"/>
    </vehicle>
    <vehicle id="74" depart="66.60">
        <route edges="gneE2 -gneE1"/>
    </vehicle>
    <vehicle id="76" depart="68.40">
        <route edges="gneE2 -gneE1"/>
    </vehicle>
    <vehicle id="77" depart="69.30">
        <route edges="gneE3 -gneE1"/>
    </vehicle>
    <vehicle id="79" depart="71.10">
        <route edges="gneE3 -gneE1"/>
    </vehicle>
    <vehicle id="80" depart="72.00">
        <route edges="gneE3 -gneE2"/>
    </vehicle>
    <vehicle id="81" depart="72.90">
        <route edges="gneE2 -gneE1"/>
    </vehicle>
    <vehicle id="82" depart="73.80">
        <route edges="gneE2 -gneE1"/>
    </vehicle>
    <vehicle id="83" depart="74.70">
        <route edges="gneE2 -gneE1"/>
    </vehicle>
    <vehicle id="84" depart="75.60">
        <route edges="gneE2 -gneE1"/>
    </vehicle>
    <vehicle id="86" depart="77.40">
        <route edges="gneE1 -gneE2"/>
    </vehicle>
    <vehicle id="88" depart="79.20">
        <route edges="gneE2 -gneE1"/>
    </vehicle>
    <vehicle id="92" depart="82.80">
        <route edges="gneE3 -gneE2"/>
    </vehicle>
    <vehicle id="93" depart="83.70">
        <route edges="gneE2 -gneE1"/>
    </vehicle>
    <vehicle id="94" depart="84.60">
        <route edges="gneE2 -gneE1"/>
    </vehicle>
    <vehicle id="96" depart="86.40">
        <route edges="gneE3 -gneE2"/>
    </vehicle>
    <vehicle id="97" depart="87.30">
        <route edges="gneE3 -gneE1"/>
    </vehicle>
    <vehicle id="98" depart="88.20">
        <route edges="gneE3 -gneE2"/>
    </vehicle>
    <vehicle id="99" depart="89.10">
        <route edges="gneE2 -gneE1"/>
    </vehicle>
    <vehicle id="101" depart="90.90">
        <route edges="gneE2 -gneE1"/>
    </vehicle>
    <vehicle id="102" depart="91.80">
        <route edges="gneE3 -gneE1"/>
    </vehicle>
    <vehicle id="104" depart="93.60">
        <route edges="gneE1 -gneE2"/>
    </vehicle>
    <vehicle id="106" depart="95.40">
        <route edges="gneE3 -gneE2"/>
    </vehicle>
    <vehicle id="107" depart="96.30">
        <route edges="gneE3 -gneE1"/>
    </vehicle>
    <vehicle id="110" depart="99.00">
        <route edges="gneE3 -gneE2"/>
    </vehicle>
    <vehicle id="112" depart="100.80">
        <route edges="gneE1 -gneE2"/>
    </vehicle>
    <vehicle id="113" depart="101.70">
        <route edges="gneE3 -gneE2"/>
    </vehicle>
    <vehicle id="115" depart="103.50">
        <route edges="gneE3 -gneE2"/>
    </vehicle>
    <vehicle id="116" depart="104.40">
        <route edges="gneE1 -gneE2"/>
    </vehicle>
    <vehicle id="117" depart="105.30">
        <route edges="gneE2 -gneE1"/>
    </vehicle>
    <vehicle id="118" depart="106.20">
        <route edges="gneE1 -gneE2"/>
    </vehicle>
    <vehicle id="119" depart="107.10">
        <route edges="gneE2 -gneE1"/>
    </vehicle>
    <vehicle id="120" depart="108.00">
        <route edges="gneE1 -gneE2"/>
    </vehicle>
    <vehicle id="121" depart="108.90">
        <route edges="gneE2 -gneE1"/>
    </vehicle>
    <vehicle id="123" depart="110.70">
        <route edges="gneE3 -gneE1"/>
    </vehicle>
    <vehicle id="124" depart="111.60">
        <route edges="gneE3 -gneE2"/>
    </vehicle>
    <vehicle id="126" depart="113.40">
        <route edges="gneE1 -gneE2"/>
    </vehicle>
    <vehicle id="127" depart="114.30">
        <route edges="gneE3 -gneE1"/>
    </vehicle>
    <vehicle id="128" depart="115.20">
        <route edges="gneE2 -gneE1"/>
    </vehicle>
    <vehicle id="129" depart="116.10">
        <route edges="gneE2 -gneE1"/>
    </vehicle>
    <vehicle id="131" depart="117.90">
        <route edges="gneE3 -gneE2"/>
    </vehicle>
    <vehicle id="133" depart="119.70">
        <route edges="gneE1 -gneE2"/>
    </vehicle>
    <vehicle id="137" depart="123.30">
        <route edges="gneE1 -gneE2"/>
    </vehicle>
    <vehicle id="139" depart="125.10">
        <route edges="gneE1 -gneE2"/>
    </vehicle>
    <vehicle id="140" depart="126.00">
        <route edges="gneE3 -gneE2"/>
    </vehicle>
    <vehicle id="141" depart="126.90">
        <route edges="gneE2 -gneE1"/>
    </vehicle>
    <vehicle id="143" depart="128.70">
        <route edges="gneE1 -gneE2"/>
    </vehicle>
    <vehicle id="144" depart="129.60">
        <route edges="gneE1 -gneE2"/>
    </vehicle>
    <vehicle id="145" depart="130.50">
        <route edges="gneE3 -gneE2"/>
    </vehicle>
    <vehicle id="146" depart="131.40">
        <route edges="gneE1 -gneE2"/>
    </vehicle>
    <vehicle id="148" depart="133.20">
        <route edges="gneE2 -gneE1"/>
    </vehicle>
    <vehicle id="149" depart="134.10">
        <route edges="gneE2 -gneE1"/>
    </vehicle>
    <vehicle id="150" depart="135.00">
        <route edges="gneE3 -gneE2"/>
    </vehicle>
    <vehicle id="151" depart="135.90">
        <route edges="gneE1 -gneE2"/>
    </vehicle>
    <vehicle id="152" depart="136.80">
        <route edges="gneE3 -gneE1"/>
    </vehicle>
    <vehicle id="153" depart="137.70">
        <route edges="gneE2 -gneE1"/>
    </vehicle>
    <vehicle id="154" depart="138.60">
        <route edges="gneE3 -gneE2"/>
    </vehicle>
    <vehicle id="155" depart="139.50">
        <route edges="gneE3 -gneE2"/>
    </vehicle>
    <vehicle id="156" depart="140.40">
        <route edges="gneE2 -gneE1"/>
    </vehicle>
    <vehicle id="157" depart="141.30">
        <route edges="gneE3 -gneE2"/>
    </vehicle>
    <vehicle id="158" depart="142.20">
        <route edges="gneE3 -gneE2"/>
    </vehicle>
    <vehicle id="160" depart="144.00">
        <route edges="gneE2 -gneE1"/>
    </vehicle>
    <vehicle id="161" depart="144.90">
        <route edges="gneE1 -gneE2"/>
    </vehicle>
    <vehicle id="165" depart="148.50">
        <route edges="gneE2 -gneE1"/>
    </vehicle>
    <vehicle id="167" depart="150.30">
        <route edges="gneE1 -gneE2"/>
    </vehicle>
    <vehicle id="168" depart="151.20">
        <route edges="gneE1 -gneE2"/>
    </vehicle>
    <vehicle id="169" depart="152.10">
        <route edges="gneE3 -gneE1"/>
    </vehicle>
    <vehicle id="171" depart="153.90">
        <route edges="gneE1 -gneE2"/>
    </vehicle>
    <vehicle id="172" depart="154.80">
        <route edges="gneE2 -gneE1"/>
    </vehicle>
    <vehicle id="177" depart="159.30">
        <route edges="gneE3 -gneE1"/>
    </vehicle>
    <vehicle id="178" depart="160.20">
        <route edges="gneE1 -gneE2"/>
    </vehicle>
    <vehicle id="179" depart="161.10">
        <route edges="gneE3 -gneE1"/>
    </vehicle>
    <vehicle id="180" depart="162.00">
        <route edges="gneE3 -gneE1"/>
    </vehicle>
    <vehicle id="181" depart="162.90">
        <route edges="gneE3 -gneE2"/>
    </vehicle>
    <vehicle id="182" depart="163.80">
        <route edges="gneE3 -gneE2"/>
    </vehicle>
    <vehicle id="183" depart="164.70">
        <route edges="gneE3 -gneE1"/>
    </vehicle>
    <vehicle id="184" depart="165.60">
        <route edges="gneE3 -gneE1"/>
    </vehicle>
    <vehicle id="185" depart="166.50">
        <route edges="gneE1 -gneE2"/>
    </vehicle>
    <vehicle id="187" depart="168.30">
        <route edges="gneE3 -gneE2"/>
    </vehicle>
    <vehicle id="188" depart="169.20">
        <route edges="gneE2 -gneE1"/>
    </vehicle>
    <vehicle id="190" depart="171.00">
        <route edges="gneE1 -gneE2"/>
    </vehicle>
    <vehicle id="191" depart="171.90">
        <route edges="gneE3 -gneE2"/>
    </vehicle>
    <vehicle id="192" depart="172.80">
        <route edges="gneE3 -gneE2"/>
    </vehicle>
    <vehicle id="195" depart="175.50">
        <route edges="gneE3 -gneE2"/>
    </vehicle>
    <vehicle id="196" depart="176.40">
        <route edges="gneE3 -gneE2"/>
    </vehicle>
    <vehicle id="197" depart="177.30">
        <route edges="gneE3 -gneE1"/>
    </vehicle>
    <vehicle id="198" depart="178.20">
        <route edges="gneE2 -gneE1"/>
    </vehicle>
    <vehicle id="200" depart="180.00">
        <route edges="gneE3 -gneE2"/>
    </vehicle>
    <vehicle id="201" depart="180.90">
        <route edges="gneE1 -gneE2"/>
    </vehicle>
    <vehicle id="202" depart="181.80">
        <route edges="gneE2 -gneE1"/>
    </vehicle>
    <vehicle id="203" depart="182.70">
        <route edges="gneE2 -gneE1"/>
    </vehicle>
    <vehicle id="205" depart="184.50">
        <route edges="gneE1 -gneE2"/>
    </vehicle>
    <vehicle id="206" depart="185.40">
        <route edges="gneE1 -gneE2"/>
    </vehicle>
    <vehicle id="207" depart="186.30">
        <route edges="gneE2 -gneE1"/>
    </vehicle>
    <vehicle id="210" depart="189.00">
        <route edges="gneE3 -gneE1"/>
    </vehicle>
    <vehicle id="212" depart="190.80">
        <route edges="gneE1 -gneE2"/>
    </vehicle>
    <vehicle id="215" depart="193.50">
        <route edges="gneE1 -gneE2"/>
    </vehicle>
    <vehicle id="216" depart="194.40">
        <route edges="gneE1 -gneE2"/>
    </vehicle>
    <vehicle id="217" depart="195.30">
        <route edges="gneE1 -gneE2"/>
    </vehicle>
    <vehicle id="218" depart="196.20">
        <route edges="gneE3 -gneE1"/>
    </vehicle>
    <vehicle id="219" depart="197.10">
        <route edges="gneE1 -gneE2"/>
    </vehicle>
    <vehicle id="220" depart="198.00">
        <route edges="gneE2 -gneE1"/>
    </vehicle>
    <vehicle id="222" depart="199.80">
        <route edges="gneE1 -gneE2"/>
    </vehicle>
    <vehicle id="223" depart="200.70">
        <route edges="gneE3 -gneE1"/>
    </vehicle>
    <vehicle id="224" depart="201.60">
        <route edges="gneE3 -gneE2"/>
    </vehicle>
    <vehicle id="225" depart="202.50">
        <route edges="gneE1 -gneE2"/>
    </vehicle>
    <vehicle id="229" depart="206.10">
        <route edges="gneE1 -gneE2"/>
    </vehicle>
    <vehicle id="231" depart="207.90">
        <route edges="gneE3 -gneE1"/>
    </vehicle>
    <vehicle id="233" depart="209.70">
        <route edges="gneE3 -gneE2"/>
    </vehicle>
    <vehicle id="234" depart="210.60">
        <route edges="gneE3 -gneE1"/>
    </vehicle>
    <vehicle id="236" depart="212.40">
        <route edges="gneE3 -gneE1"/>
    </vehicle>
    <vehicle id="237" depart="213.30">
        <route edges="gneE1 -gneE2"/>
    </vehicle>
    <vehicle id="238" depart="214.20">
        <route edges="gneE3 -gneE1"/>
    </vehicle>
    <vehicle id="240" depart="216.00">
        <route edges="gneE2 -gneE1"/>
    </vehicle>
    <vehicle id="241" depart="216.90">
        <route edges="gneE1 -gneE2"/>
    </vehicle>
    <vehicle id="244" depart="219.60">
        <route edges="gneE1 -gneE2"/>
    </vehicle>
    <vehicle id="245" depart="220.50">
        <route edges="gneE2 -gneE1"/>
    </vehicle>
    <vehicle id="246" depart="221.40">
        <route edges="gneE2 -gneE1"/>
    </vehicle>
    <vehicle id="248" depart="223.20">
        <route edges="gneE3 -gneE2"/>
    </vehicle>
    <vehicle id="249" depart="224.10">
        <route edges="gneE3 -gneE2"/>
    </vehicle>
    <vehicle id="252" depart="226.80">
        <route edges="gneE1 -gneE2"/>
    </vehicle>
    <vehicle id="254" depart="228.60">
        <route edges="gneE3 -gneE2"/>
    </vehicle>
    <vehicle id="255" depart="229.50">
        <route edges="gneE3 -gneE1"/>
    </vehicle>
    <vehicle id="257" depart="231.30">
        <route edges="gneE1 -gneE2"/>
    </vehicle>
    <vehicle id="260" depart="234.00">
        <route edges="gneE1 -gneE2"/>
    </vehicle>
    <vehicle id="261" depart="234.90">
        <route edges="gneE2 -gneE1"/>
    </vehicle>
    <vehicle id="263" depart="236.70">
        <route edges="gneE3 -gneE1"/>
    </vehicle>
    <vehicle id="265" depart="238.50">
        <route edges="gneE3 -gneE2"/>
    </vehicle>
    <vehicle id="267" depart="240.30">
        <route edges="gneE3 -gneE1"/>
    </vehicle>
    <vehicle id="268" depart="241.20">
        <route edges="gneE2 -gneE1"/>
    </vehicle>
    <vehicle id="270" depart="243.00">
        <route edges="gneE3 -gneE1"/>
    </vehicle>
    <vehicle id="271" depart="243.90">
        <route edges="gneE3 -gneE1"/>
    </vehicle>
    <vehicle id="273" depart="245.70">
        <route edges="gneE1 -gneE2"/>
    </vehicle>
    <vehicle id="275" depart="247.50">
        <route edges="gneE2 -gneE1"/>
    </vehicle>
    <vehicle id="276" depart="248.40">
        <route edges="gneE2 -gneE1"/>
    </vehicle>
    <vehicle id="277" depart="249.30">
        <route edges="gneE3 -gneE2"/>
    </vehicle>
    <vehicle id="278" depart="250.20">
        <route edges="gneE1 -gneE2"/>
    </vehicle>
    <vehicle id="279" depart="251.10">
        <route edges="gneE3 -gneE2"/>
    </vehicle>
    <vehicle id="280" depart="252.00">
        <route edges="gneE3 -gneE1"/>
    </vehicle>
    <vehicle id="281" depart="252.90">
        <route edges="gneE1 -gneE2"/>
    </vehicle>
    <vehicle id="285" depart="256.50">
        <route edges="gneE2 -gneE1"/>
    </vehicle>
    <vehicle id="287" depart="258.30">
        <route edges="gneE2 -gneE1"/>
    </vehicle>
    <vehicle id="289" depart="260.10">
        <route edges="gneE3 -gneE2"/>
    </vehicle>
    <vehicle id="290" depart="261.00">
        <route edges="gneE3 -gneE2"/>
    </vehicle>
    <vehicle id="291" depart="261.90">
        <route edges="gneE2 -gneE1"/>
    </vehicle>
    <vehicle id="292" depart="262.80">
        <route edges="gneE1 -gneE2"/>
    </vehicle>
    <vehicle id="294" depart="264.60">
        <route edges="gneE3 -gneE1"/>
    </vehicle>
    <vehicle id="295" depart="265.50">
        <route edges="gneE1 -gneE2"/>
    </vehicle>
    <vehicle id="296" depart="266.40">
        <route edges="gneE2 -gneE1"/>
    </vehicle>
    <vehicle id="298" depart="268.20">
        <route edges="gneE3 -gneE1"/>
    </vehicle>
    <vehicle id="300" depart="270.00">
        <route edges="gneE3 -gneE2"/>
    </vehicle>
    <vehicle id="301" depart="270.90">
        <route edges="gneE3 -gneE2"/>
    </vehicle>
    <vehicle id="305" depart="274.50">
        <route edges="gneE1 -gneE2"/>
    </vehicle>
    <vehicle id="306" depart="275.40">
        <route edges="gneE3 -gneE1"/>
    </vehicle>
    <vehicle id="307" depart="276.30">
        <route edges="gneE3 -gneE2"/>
    </vehicle>
    <vehicle id="308" depart="277.20">
        <route edges="gneE2 -gneE1"/>
    </vehicle>
    <vehicle id="309" depart="278.10">
        <route edges="gneE2 -gneE1"/>
    </vehicle>
    <vehicle id="310" depart="279.00">
        <route edges="gneE3 -gneE1"/>
    </vehicle>
    <vehicle id="311" depart="279.90">
        <route edges="gneE2 -gneE1"/>
    </vehicle>
    <vehicle id="313" depart="281.70">
        <route edges="gneE3 -gneE1"/>
    </vehicle>
    <vehicle id="314" depart="282.60">
        <route edges="gneE1 -gneE2"/>
    </vehicle>
    <vehicle id="316" depart="284.40">
        <route edges="gneE1 -gneE2"/>
    </vehicle>
    <vehicle id="319" depart="287.10">
        <route edges="gneE3 -gneE1"/>
    </vehicle>
    <vehicle id="321" depart="288.90">
        <route edges="gneE2 -gneE1"/>
    </vehicle>
    <vehicle id="322" depart="289.80">
        <route edges="gneE2 -gneE1"/>
    </vehicle>
    <vehicle id="323" depart="290.70">
        <route edges="gneE2 -gneE1"/>
    </vehicle>
    <vehicle id="324" depart="291.60">
        <route edges="gneE2 -gneE1"/>
    </vehicle>
    <vehicle id="325" depart="292.50">
        <route edges="gneE3 -gneE1"/>
    </vehicle>
    <vehicle id="326" depart="293.40">
        <route edges="gneE2 -gneE1"/>
    </vehicle>
    <vehicle id="327" depart="294.30">
        <route edges="gneE3 -gneE1"/>
    </vehicle>
    <vehicle id="328" depart="295.20">
        <route edges="gneE3 -gneE1"/>
    </vehicle>
    <vehicle id="329" depart="296.10">
        <route edges="gneE1 -gneE2"/>
    </vehicle>
    <vehicle id="331" depart="297.90">
        <route edges="gneE2 -gneE1"/>
    </vehicle>
    <vehicle id="334" depart="300.60">
        <route edges="gneE3 -gneE1"/>
    </vehicle>
    <vehicle id="335" depart="301.50">
        <route edges="gneE3 -gneE1"/>
    </vehicle>
    <vehicle id="337" depart="303.30">
        <route edges="gneE2 -gneE1"/>
    </vehicle>
    <vehicle id="338" depart="304.20">
        <route edges="gneE3 -gneE2"/>
    </vehicle>
    <vehicle id="340" depart="306.00">
        <route edges="gneE3 -gneE2"/>
    </vehicle>
    <vehicle id="341" depart="306.90">
        <route edges="gneE3 -gneE1"/>
    </vehicle>
    <vehicle id="342" depart="307.80">
        <route edges="gneE1 -gneE2"/>
    </vehicle>
    <vehicle id="345" depart="310.50">
        <route edges="gneE1 -gneE2"/>
    </vehicle>
    <vehicle id="346" depart="311.40">
        <route edges="gneE3 -gneE1"/>
    </vehicle>
    <vehicle id="347" depart="312.30">
        <route edges="gneE3 -gneE2"/>
    </vehicle>
    <vehicle id="348" depart="313.20">
        <route edges="gneE1 -gneE2"/>
    </vehicle>
    <vehicle id="349" depart="314.10">
        <route edges="gneE1 -gneE2"/>
    </vehicle>
    <vehicle id="350" depart="315.00">
        <route edges="gneE3 -gneE1"/>
    </vehicle>
    <vehicle id="352" depart="316.80">
        <route edges="gneE3 -gneE1"/>
    </vehicle>
    <vehicle id="353" depart="317.70">
        <route edges="gneE1 -gneE2"/>
    </vehicle>
    <vehicle id="354" depart="318.60">
        <route edges="gneE3 -gneE2"/>
    </vehicle>
    <vehicle id="358" depart="322.20">
        <route edges="gneE3 -gneE2"/>
    </vehicle>
    <vehicle id="360" depart="324.00">
        <route edges="gneE3 -gneE2"/>
    </vehicle>
    <vehicle id="361" depart="324.90">
        <route edges="gneE3 -gneE2"/>
    </vehicle>
    <vehicle id="362" depart="325.80">
        <route edges="gneE3 -gneE1"/>
    </vehicle>
    <vehicle id="364" depart="327.60">
        <route edges="gneE2 -gneE1"/>
    </vehicle>
    <vehicle id="365" depart="328.50">
        <route edges="gneE3 -gneE1"/>
    </vehicle>
    <vehicle id="367" depart="330.30">
        <route edges="gneE1 -gneE2"/>
    </vehicle>
    <vehicle id="369" depart="332.10">
        <route edges="gneE3 -gneE1"/>
    </vehicle>
    <vehicle id="370" depart="333.00">
        <route edges="gneE3 -gneE1"/>
    </vehicle>
    <vehicle id="371" depart="333.90">
        <route edges="gneE2 -gneE1"/>
    </vehicle>
    <vehicle id="372" depart="334.80">
        <route edges="gneE2 -gneE1"/>
    </vehicle>
    <vehicle id="373" depart="335.70">
        <route edges="gneE1 -gneE2"/>
    </vehicle>
    <vehicle id="374" depart="336.60">
        <route edges="gneE1 -gneE2"/>
    </vehicle>
    <vehicle id="375" depart="337.50">
        <route edges="gneE1 -gneE2"/>
    </vehicle>
    <vehicle id="376" depart="338.40">
        <route edges="gneE2 -gneE1"/>
    </vehicle>
    <vehicle id="377" depart="339.30">
        <route edges="gneE3 -gneE1"/>
    </vehicle>
    <vehicle id="378" depart="340.20">
        <route edges="gneE3 -gneE1"/>
    </vehicle>
    <vehicle id="380" depart="342.00">
        <route edges="gneE3 -gneE1"/>
    </vehicle>
    <vehicle id="381" depart="342.90">
        <route edges="gneE3 -gneE2"/>
    </vehicle>
    <vehicle id="382" depart="343.80">
        <route edges="gneE1 -gneE2"/>
    </vehicle>
    <vehicle id="383" depart="344.70">
        <route edges="gneE3 -gneE1"/>
    </vehicle>
    <vehicle id="384" depart="345.60">
        <route edges="gneE2 -gneE1"/>
    </vehicle>
    <vehicle id="387" depart="348.30">
        <route edges="gneE3 -gneE2"/>
    </vehicle>
    <vehicle id="388" depart="349.20">
        <route edges="gneE2 -gneE1"/>
    </vehicle>
    <vehicle id="389" depart="350.10">
        <route edges="gneE3 -gneE2"/>
    </vehicle>
    <vehicle id="391" depart="351.90">
        <route edges="gneE3 -gneE2"/>
    </vehicle>
    <vehicle id="392" depart="352.80">
        <route edges="gneE2 -gneE1"/>
    </vehicle>
    <vehicle id="396" depart="356.40">
        <route edges="gneE2 -gneE1"/>
    </vehicle>
    <vehicle id="397" depart="357.30">
        <route edges="gneE1 -gneE2"/>
    </vehicle>
    <vehicle id="398" depart="358.20">
        <route edges="gneE3 -gneE2"/>
    </vehicle>
    <vehicle id="399" depart="359.10">
        <route edges="gneE3 -gneE1"/>
    </vehicle>
    <vehicle id="400" depart="360.00">
        <route edges="gneE2 -gneE1"/>
    </vehicle>
    <vehicle id="401" depart="360.90">
        <route edges="gneE3 -gneE1"/>
    </vehicle>
    <vehicle id="402" depart="361.80">
        <route edges="gneE1 -gneE2"/>
    </vehicle>
    <vehicle id="405" depart="364.50">
        <route edges="gneE3 -gneE1"/>
    </vehicle>
    <vehicle id="407" depart="366.30">
        <route edges="gneE2 -gneE1"/>
    </vehicle>
    <vehicle id="408" depart="367.20">
        <route edges="gneE1 -gneE2"/>
    </vehicle>
    <vehicle id="409" depart="368.10">
        <route edges="gneE1 -gneE2"/>
    </vehicle>
    <vehicle id="410" depart="369.00">
        <route edges="gneE2 -gneE1"/>
    </vehicle>
    <vehicle id="411" depart="369.90">
        <route edges="gneE2 -gneE1"/>
    </vehicle>
    <vehicle id="412" depart="370.80">
        <route edges="gneE1 -gneE2"/>
    </vehicle>
    <vehicle id="413" depart="371.70">
        <route edges="gneE1 -gneE2"/>
    </vehicle>
    <vehicle id="414" depart="372.60">
        <route edges="gneE3 -gneE2"/>
    </vehicle>
    <vehicle id="415" depart="373.50">
        <route edges="gneE3 -gneE2"/>
    </vehicle>
    <vehicle id="416" depart="374.40">
        <route edges="gneE3 -gneE2"/>
    </vehicle>
    <vehicle id="418" depart="376.20">
        <route edges="gneE1 -gneE2"/>
    </vehicle>
    <vehicle id="421" depart="378.90">
        <route edges="gneE1 -gneE2"/>
    </vehicle>
    <vehicle id="423" depart="380.70">
        <route edges="gneE3 -gneE2"/>
    </vehicle>
    <vehicle id="427" depart="384.30">
        <route edges="gneE2 -gneE1"/>
    </vehicle>
    <vehicle id="429" depart="386.10">
        <route edges="gneE3 -gneE2"/>
    </vehicle>
    <vehicle id="430" depart="387.00">
        <route edges="gneE2 -gneE1"/>
    </vehicle>
    <vehicle id="433" depart="389.70">
        <route edges="gneE3 -gneE2"/>
    </vehicle>
    <vehicle id="434" depart="390.60">
        <route edges="gneE3 -gneE1"/>
    </vehicle>
    <vehicle id="437" depart="393.30">
        <route edges="gneE1 -gneE2"/>
    </vehicle>
    <vehicle id="438" depart="394.20">
        <route edges="gneE2 -gneE1"/>
    </vehicle>
    <vehicle id="441" depart="396.90">
        <route edges="gneE3 -gneE2"/>
    </vehicle>
    <vehicle id="442" depart="397.80">
        <route edges="gneE3 -gneE2"/>
    </vehicle>
    <vehicle id="443" depart="398.70">
        <route edges="gneE1 -gneE2"/>
    </vehicle>
    <vehicle id="444" depart="399.60">
        <route edges="gneE2 -gneE1"/>
    </vehicle>
    <vehicle id="445" depart="400.50">
        <route edges="gneE3 -gneE1"/>
    </vehicle>
    <vehicle id="449" depart="404.10">
        <route edges="gneE3 -gneE1"/>
    </vehicle>
    <vehicle id="452" depart="406.80">
        <route edges="gneE3 -gneE2"/>
    </vehicle>
    <vehicle id="453" depart="407.70">
        <route edges="gneE3 -gneE2"/>
    </vehicle>
    <vehicle id="454" depart="408.60">
        <route edges="gneE1 -gneE2"/>
    </vehicle>
    <vehicle id="455" depart="409.50">
        <route edges="gneE1 -gneE2"/>
    </vehicle>
    <vehicle id="457" depart="411.30">
        <route edges="gneE2 -gneE1"/>
    </vehicle>
    <vehicle id="460" depart="414.00">
        <route edges="gneE2 -gneE1"/>
    </vehicle>
    <vehicle id="461" depart="414.90">
        <route edges="gneE1 -gneE2"/>
    </vehicle>
    <vehicle id="463" depart="416.70">
        <route edges="gneE3 -gneE2"/>
    </vehicle>
    <vehicle id="465" depart="418.50">
        <route edges="gneE1 -gneE2"/>
    </vehicle>
    <vehicle id="468" depart="421.20">
        <route edges="gneE3 -gneE1"/>
    </vehicle>
    <vehicle id="469" depart="422.10">
        <route edges="gneE2 -gneE1"/>
    </vehicle>
    <vehicle id="470" depart="423.00">
        <route edges="gneE2 -gneE1"/>
    </vehicle>
    <vehicle id="472" depart="424.80">
        <route edges="gneE3 -gneE1"/>
    </vehicle>
    <vehicle id="473" depart="425.70">
        <route edges="gneE2 -gneE1"/>
    </vehicle>
    <vehicle id="474" depart="426.60">
        <route edges="gneE3 -gneE1"/>
    </vehicle>
    <vehicle id="475" depart="427.50">
        <route edges="gneE2 -gneE1"/>
    </vehicle>
    <vehicle id="476" depart="428.40">
        <route edges="gneE3 -gneE2"/>
    </vehicle>
    <vehicle id="478" depart="430.20">
        <route edges="gneE2 -gneE1"/>
    </vehicle>
    <vehicle id="480" depart="432.00">
        <route edges="gneE1 -gneE2"/>
    </vehicle>
    <vehicle id="482" depart="433.80">
        <route edges="gneE1 -gneE2"/>
    </vehicle>
    <vehicle id="483" depart="434.70">