<?xml version="1.0" encoding="UTF-8"?>

<!-- generated on Sun May  6 19:48:14 2018 by SUMO duarouter Version 0.30.0
<?xml version="1.0" encoding="UTF-8"?>

<configuration xmlns:xsi="http://www.w3.org/2001/XMLSchema-instance" xsi:noNamespaceSchemaLocation="http://sumo.dlr.de/xsd/duarouterConfiguration.xsd">

    <input>
        <net-file value="simple_T/simple_T.net.xml"/>
        <route-files value="trips.trips.xml"/>
    </input>

    <output>
        <output-file value="simple_T/route/simple_T-1.0-2.rou.xml"/>
    </output>

    <processing>
        <ignore-errors value="true"/>
    </processing>

    <time>
        <begin value="0.0"/>
        <end value="1000.0"/>
    </time>

    <report>
        <no-warnings value="true"/>
        <no-step-log value="true"/>
    </report>

</configuration>
-->

<routes xmlns:xsi="http://www.w3.org/2001/XMLSchema-instance" xsi:noNamespaceSchemaLocation="http://sumo.dlr.de/xsd/routes_file.xsd">
    <vehicle id="1" depart="1.00">
        <route edges="gneE3 -gneE2"/>
    </vehicle>
    <vehicle id="3" depart="3.00">
        <route edges="gneE3 -gneE1"/>
    </vehicle>
    <vehicle id="4" depart="4.00">
        <route edges="gneE1 -gneE2"/>
    </vehicle>
    <vehicle id="7" depart="7.00">
        <route edges="gneE1 -gneE2"/>
    </vehicle>
    <vehicle id="8" depart="8.00">
        <route edges="gneE3 -gneE1"/>
    </vehicle>
    <vehicle id="9" depart="9.00">
        <route edges="gneE1 -gneE2"/>
    </vehicle>
    <vehicle id="10" depart="10.00">
        <route edges="gneE1 -gneE2"/>
    </vehicle>
    <vehicle id="13" depart="13.00">
        <route edges="gneE1 -gneE2"/>
    </vehicle>
    <vehicle id="15" depart="15.00">
        <route edges="gneE3 -gneE2"/>
    </vehicle>
    <vehicle id="17" depart="17.00">
        <route edges="gneE3 -gneE1"/>
    </vehicle>
    <vehicle id="19" depart="19.00">
        <route edges="gneE3 -gneE2"/>
    </vehicle>
    <vehicle id="20" depart="20.00">
        <route edges="gneE1 -gneE2"/>
    </vehicle>
    <vehicle id="21" depart="21.00">
        <route edges="gneE2 -gneE1"/>
    </vehicle>
    <vehicle id="22" depart="22.00">
        <route edges="gneE3 -gneE1"/>
    </vehicle>
    <vehicle id="23" depart="23.00">
        <route edges="gneE2 -gneE1"/>
    </vehicle>
    <vehicle id="24" depart="24.00">
        <route edges="gneE3 -gneE2"/>
    </vehicle>
    <vehicle id="25" depart="25.00">
        <route edges="gneE2 -gneE1"/>
    </vehicle>
    <vehicle id="27" depart="27.00">
        <route edges="gneE3 -gneE1"/>
    </vehicle>
    <vehicle id="29" depart="29.00">
        <route edges="gneE3 -gneE1"/>
    </vehicle>
    <vehicle id="30" depart="30.00">
        <route edges="gneE3 -gneE1"/>
    </vehicle>
    <vehicle id="31" depart="31.00">
        <route edges="gneE2 -gneE1"/>
    </vehicle>
    <vehicle id="32" depart="32.00">
        <route edges="gneE3 -gneE2"/>
    </vehicle>
    <vehicle id="33" depart="33.00">
        <route edges="gneE3 -gneE2"/>
    </vehicle>
    <vehicle id="34" depart="34.00">
        <route edges="gneE3 -gneE2"/>
    </vehicle>
    <vehicle id="35" depart="35.00">
        <route edges="gneE2 -gneE1"/>
    </vehicle>
    <vehicle id="43" depart="43.00">
        <route edges="gneE3 -gneE1"/>
    </vehicle>
    <vehicle id="44" depart="44.00">
        <route edges="gneE3 -gneE1"/>
    </vehicle>
    <vehicle id="46" depart="46.00">
        <route edges="gneE2 -gneE1"/>
    </vehicle>
    <vehicle id="47" depart="47.00">
        <route edges="gneE3 -gneE2"/>
    </vehicle>
    <vehicle id="50" depart="50.00">
        <route edges="gneE3 -gneE1"/>
    </vehicle>
    <vehicle id="51" depart="51.00">
        <route edges="gneE3 -gneE1"/>
    </vehicle>
    <vehicle id="52" depart="52.00">
        <route edges="gneE2 -gneE1"/>
    </vehicle>
    <vehicle id="53" depart="53.00">
        <route edges="gneE3 -gneE2"/>
    </vehicle>
    <vehicle id="54" depart="54.00">
        <route edges="gneE3 -gneE2"/>
    </vehicle>
    <vehicle id="55" depart="55.00">
        <route edges="gneE1 -gneE2"/>
    </vehicle>
    <vehicle id="56" depart="56.00">
        <route edges="gneE3 -gneE2"/>
    </vehicle>
    <vehicle id="59" depart="59.00">
        <route edges="gneE2 -gneE1"/>
    </vehicle>
    <vehicle id="60" depart="60.00">
        <route edges="gneE3 -gneE2"/>
    </vehicle>
    <vehicle id="62" depart="62.00">
        <route edges="gneE3 -gneE2"/>
    </vehicle>
    <vehicle id="63" depart="63.00">
        <route edges="gneE3 -gneE1"/>
    </vehicle>
    <vehicle id="64" depart="64.00">
        <route edges="gneE3 -gneE1"/>
    </vehicle>
    <vehicle id="65" depart="65.00">
        <route edges="gneE1 -gneE2"/>
    </vehicle>
    <vehicle id="68" depart="68.00">
        <route edges="gneE3 -gneE1"/>
    </vehicle>
    <vehicle id="69" depart="69.00">
        <route edges="gneE2 -gneE1"/>
    </vehicle>
    <vehicle id="70" depart="70.00">
        <route edges="gneE3 -gneE1"/>
    </vehicle>
    <vehicle id="71" depart="71.00">
        <route edges="gneE3 -gneE2"/>
    </vehicle>
    <vehicle id="73" depart="73.00">
        <route edges="gneE2 -gneE1"/>
    </vehicle>
    <vehicle id="74" depart="74.00">
        <route edges="gneE1 -gneE2"/>
    </vehicle>
    <vehicle id="80" depart="80.00">
        <route edges="gneE3 -gneE1"/>
    </vehicle>
    <vehicle id="81" depart="81.00">
        <route edges="gneE1 -gneE2"/>
    </vehicle>
    <vehicle id="82" depart="82.00">
        <route edges="gneE2 -gneE1"/>
    </vehicle>
    <vehicle id="87" depart="87.00">
        <route edges="gneE3 -gneE2"/>
    </vehicle>
    <vehicle id="88" depart="88.00">
        <route edges="gneE1 -gneE2"/>
    </vehicle>
    <vehicle id="92" depart="92.00">
        <route edges="gneE3 -gneE1"/>
    </vehicle>
    <vehicle id="94" depart="94.00">
        <route edges="gneE2 -gneE1"/>
    </vehicle>
    <vehicle id="95" depart="95.00">
        <route edges="gneE1 -gneE2"/>
    </vehicle>
    <vehicle id="96" depart="96.00">
        <route edges="gneE3 -gneE1"/>
    </vehicle>
    <vehicle id="97" depart="97.00">
        <route edges="gneE1 -gneE2"/>
    </vehicle>
    <vehicle id="98" depart="98.00">
        <route edges="gneE3 -gneE2"/>
    </vehicle>
    <vehicle id="99" depart="99.00">
        <route edges="gneE2 -gneE1"/>
    </vehicle>
    <vehicle id="100" depart="100.00">
        <route edges="gneE2 -gneE1"/>
    </vehicle>
    <vehicle id="101" depart="101.00">
        <route edges="gneE1 -gneE2"/>
    </vehicle>
    <vehicle id="102" depart="102.00">
        <route edges="gneE2 -gneE1"/>
    </vehicle>
    <vehicle id="103" depart="103.00">
        <route edges="gneE1 -gneE2"/>
    </vehicle>
    <vehicle id="105" depart="105.00">
        <route edges="gneE3 -gneE2"/>
    </vehicle>
    <vehicle id="106" depart="106.00">
        <route edges="gneE2 -gneE1"/>
    </vehicle>
    <vehicle id="107" depart="107.00">
        <route edges="gneE2 -gneE1"/>
    </vehicle>
    <vehicle id="109" depart="109.00">
        <route edges="gneE3 -gneE2"/>
    </vehicle>
    <vehicle id="110" depart="110.00">
        <route edges="gneE3 -gneE2"/>
    </vehicle>
    <vehicle id="114" depart="114.00">
        <route edges="gneE2 -gneE1"/>
    </vehicle>
    <vehicle id="115" depart="115.00">
        <route edges="gneE3 -gneE1"/>
    </vehicle>
    <vehicle id="116" depart="116.00">
        <route edges="gneE1 -gneE2"/>
    </vehicle>
    <vehicle id="118" depart="118.00">
        <route edges="gneE1 -gneE2"/>
    </vehicle>
    <vehicle id="119" depart="119.00">
        <route edges="gneE3 -gneE1"/>
    </vehicle>
    <vehicle id="121" depart="121.00">
        <route edges="gneE1 -gneE2"/>
    </vehicle>
    <vehicle id="123" depart="123.00">
        <route edges="gneE1 -gneE2"/>
    </vehicle>
    <vehicle id="124" depart="124.00">
        <route edges="gneE3 -gneE2"/>
    </vehicle>
    <vehicle id="126" depart="126.00">
        <route edges="gneE1 -gneE2"/>
    </vehicle>
    <vehicle id="127" depart="127.00">
        <route edges="gneE3 -gneE2"/>
    </vehicle>
    <vehicle id="128" depart="128.00">
        <route edges="gneE2 -gneE1"/>
    </vehicle>
    <vehicle id="129" depart="129.00">
        <route edges="gneE1 -gneE2"/>
    </vehicle>
    <vehicle id="131" depart="131.00">
        <route edges="gneE2 -gneE1"/>
    </vehicle>
    <vehicle id="132" depart="132.00">
        <route edges="gneE3 -gneE2"/>
    </vehicle>
    <vehicle id="134" depart="134.00">
        <route edges="gneE3 -gneE2"/>
    </vehicle>
    <vehicle id="135" depart="135.00">
        <route edges="gneE3 -gneE2"/>
    </vehicle>
    <vehicle id="136" depart="136.00">
        <route edges="gneE1 -gneE2"/>
    </vehicle>
    <vehicle id="137" depart="137.00">
        <route edges="gneE3 -gneE1"/>
    </vehicle>
    <vehicle id="138" depart="138.00">
        <route edges="gneE2 -gneE1"/>
    </vehicle>
    <vehicle id="141" depart="141.00">
        <route edges="gneE1 -gneE2"/>
    </vehicle>
    <vehicle id="142" depart="142.00">
        <route edges="gneE1 -gneE2"/>
    </vehicle>
    <vehicle id="143" depart="143.00">
        <route edges="gneE2 -gneE1"/>
    </vehicle>
    <vehicle id="144" depart="144.00">
        <route edges="gneE2 -gneE1"/>
    </vehicle>
    <vehicle id="145" depart="145.00">
        <route edges="gneE3 -gneE2"/>
    </vehicle>
    <vehicle id="146" depart="146.00">
        <route edges="gneE2 -gneE1"/>
    </vehicle>
    <vehicle id="147" depart="147.00">
        <route edges="gneE2 -gneE1"/>
    </vehicle>
    <vehicle id="148" depart="148.00">
        <route edges="gneE1 -gneE2"/>
    </vehicle>
    <vehicle id="149" depart="149.00">
        <route edges="gneE3 -gneE2"/>
    </vehicle>
    <vehicle id="150" depart="150.00">
        <route edges="gneE1 -gneE2"/>
    </vehicle>
    <vehicle id="151" depart="151.00">
        <route edges="gneE3 -gneE1"/>
    </vehicle>
    <vehicle id="152" depart="152.00">
        <route edges="gneE3 -gneE1"/>
    </vehicle>
    <vehicle id="154" depart="154.00">
        <route edges="gneE3 -gneE2"/>
    </vehicle>
    <vehicle id="157" depart="157.00">
        <route edges="gneE1 -gneE2"/>
    </vehicle>
    <vehicle id="158" depart="158.00">
        <route edges="gneE2 -gneE1"/>
    </vehicle>
    <vehicle id="159" depart="159.00">
        <route edges="gneE2 -gneE1"/>
    </vehicle>
    <vehicle id="160" depart="160.00">
        <route edges="gneE2 -gneE1"/>
    </vehicle>
    <vehicle id="161" depart="161.00">
        <route edges="gneE3 -gneE2"/>
    </vehicle>
    <vehicle id="162" depart="162.00">
        <route edges="gneE1 -gneE2"/>
    </vehicle>
    <vehicle id="163" depart="163.00">
        <route edges="gneE3 -gneE2"/>
    </vehicle>
    <vehicle id="164" depart="164.00">
        <route edges="gneE3 -gneE2"/>
    </vehicle>
    <vehicle id="165" depart="165.00">
        <route edges="gneE3 -gneE2"/>
    </vehicle>
    <vehicle id="166" depart="166.00">
        <route edges="gneE2 -gneE1"/>
    </vehicle>
    <vehicle id="167" depart="167.00">
        <route edges="gneE3 -gneE2"/>
    </vehicle>
    <vehicle id="169" depart="169.00">
        <route edges="gneE3 -gneE2"/>
    </vehicle>
    <vehicle id="170" depart="170.00">
        <route edges="gneE3 -gneE1"/>
    </vehicle>
    <vehicle id="172" depart="172.00">
        <route edges="gneE2 -gneE1"/>
    </vehicle>
    <vehicle id="174" depart="174.00">
        <route edges="gneE3 -gneE1"/>
    </vehicle>
    <vehicle id="176" depart="176.00">
        <route edges="gneE3 -gneE2"/>
    </vehicle>
    <vehicle id="177" depart="177.00">
        <route edges="gneE2 -gneE1"/>
    </vehicle>
    <vehicle id="178" depart="178.00">
        <route edges="gneE1 -gneE2"/>
    </vehicle>
    <vehicle id="179" depart="179.00">
        <route edges="gneE3 -gneE2"/>
    </vehicle>
    <vehicle id="180" depart="180.00">
        <route edges="gneE3 -gneE2"/>
    </vehicle>
    <vehicle id="181" depart="181.00">
        <route edges="gneE2 -gneE1"/>
    </vehicle>
    <vehicle id="182" depart="182.00">
        <route edges="gneE3 -gneE2"/>
    </vehicle>
    <vehicle id="183" depart="183.00">
        <route edges="gneE2 -gneE1"/>
    </vehicle>
    <vehicle id="184" depart="184.00">
        <route edges="gneE2 -gneE1"/>
    </vehicle>
    <vehicle id="185" depart="185.00">
        <route edges="gneE3 -gneE2"/>
    </vehicle>
    <vehicle id="186" depart="186.00">
        <route edges="gneE2 -gneE1"/>
    </vehicle>
    <vehicle id="187" depart="187.00">
        <route edges="gneE2 -gneE1"/>
    </vehicle>
    <vehicle id="188" depart="188.00">
        <route edges="gneE1 -gneE2"/>
    </vehicle>
    <vehicle id="189" depart="189.00">
        <route edges="gneE3 -gneE2"/>
    </vehicle>
    <vehicle id="190" depart="190.00">
        <route edges="gneE3 -gneE2"/>
    </vehicle>
    <vehicle id="193" depart="193.00">
        <route edges="gneE3 -gneE1"/>
    </vehicle>
    <vehicle id="194" depart="194.00">
        <route edges="gneE3 -gneE1"/>
    </vehicle>
    <vehicle id="195" depart="195.00">
        <route edges="gneE3 -gneE2"/>
    </vehicle>
    <vehicle id="196" depart="196.00">
        <route edges="gneE1 -gneE2"/>
    </vehicle>
    <vehicle id="197" depart="197.00">
        <route edges="gneE3 -gneE2"/>
    </vehicle>
    <vehicle id="198" depart="198.00">
        <route edges="gneE3 -gneE1"/>
    </vehicle>
    <vehicle id="200" depart="200.00">
        <route edges="gneE2 -gneE1"/>
    </vehicle>
    <vehicle id="202" depart="202.00">
        <route edges="gneE3 -gneE1"/>
    </vehicle>
    <vehicle id="204" depart="204.00">
        <route edges="gneE3 -gneE2"/>
    </vehicle>
    <vehicle id="205" depart="205.00">
        <route edges="gneE1 -gneE2"/>
    </vehicle>
    <vehicle id="206" depart="206.00">
        <route edges="gneE3 -gneE1"/>
    </vehicle>
    <vehicle id="207" depart="207.00">
        <route edges="gneE2 -gneE1"/>
    </vehicle>
    <vehicle id="208" depart="208.00">
        <route edges="gneE3 -gneE2"/>
    </vehicle>
    <vehicle id="211" depart="211.00">
        <route edges="gneE3 -gneE1"/>
    </vehicle>
    <vehicle id="212" depart="212.00">
        <route edges="gneE3 -gneE1"/>
    </vehicle>
    <vehicle id="213" depart="213.00">
        <route edges="gneE2 -gneE1"/>
    </vehicle>
    <vehicle id="214" depart="214.00">
        <route edges="gneE2 -gneE1"/>
    </vehicle>
    <vehicle id="215" depart="215.00">
        <route edges="gneE1 -gneE2"/>
    </vehicle>
    <vehicle id="217" depart="217.00">
        <route edges="gneE3 -gneE2"/>
    </vehicle>
    <vehicle id="218" depart="218.00">
        <route edges="gneE3 -gneE1"/>
    </vehicle>
    <vehicle id="219" depart="219.00">
        <route edges="gneE1 -gneE2"/>
    </vehicle>
    <vehicle id="220" depart="220.00">
        <route edges="gneE3 -gneE1"/>
    </vehicle>
    <vehicle id="221" depart="221.00">
        <route edges="gneE1 -gneE2"/>
    </vehicle>
    <vehicle id="223" depart="223.00">
        <route edges="gneE3 -gneE2"/>
    </vehicle>
    <vehicle id="224" depart="224.00">
        <route edges="gneE1 -gneE2"/>
    </vehicle>
    <vehicle id="225" depart="225.00">
        <route edges="gneE3 -gneE1"/>
    </vehicle>
    <vehicle id="226" depart="226.00">
        <route edges="gneE2 -gneE1"/>
    </vehicle>
    <vehicle id="227" depart="227.00">
        <route edges="gneE2 -gneE1"/>
    </vehicle>
    <vehicle id="230" depart="230.00">
        <route edges="gneE2 -gneE1"/>
    </vehicle>
    <vehicle id="231" depart="231.00">
        <route edges="gneE2 -gneE1"/>
    </vehicle>
    <vehicle id="233" depart="233.00">
        <route edges="gneE3 -gneE2"/>
    </vehicle>
    <vehicle id="235" depart="235.00">
        <route edges="gneE3 -gneE1"/>
    </vehicle>
    <vehicle id="238" depart="238.00">
        <route edges="gneE3 -gneE1"/>
    </vehicle>
    <vehicle id="240" depart="240.00">
        <route edges="gneE2 -gneE1"/>
    </vehicle>
    <vehicle id="241" depart="241.00">
        <route edges="gneE1 -gneE2"/>
    </vehicle>
    <vehicle id="243" depart="243.00">
        <route edges="gneE3 -gneE2"/>
    </vehicle>
    <vehicle id="246" depart="246.00">
        <route edges="gneE3 -gneE1"/>
    </vehicle>
    <vehicle id="247" depart="247.00">
        <route edges="gneE2 -gneE1"/>
    </vehicle>
    <vehicle id="248" depart="248.00">
        <route edges="gneE2 -gneE1"/>
    </vehicle>
    <vehicle id="249" depart="249.00">
        <route edges="gneE2 -gneE1"/>
    </vehicle>
    <vehicle id="250" depart="250.00">
        <route edges="gneE2 -gneE1"/>
    </vehicle>
    <vehicle id="252" depart="252.00">
        <route edges="gneE1 -gneE2"/>
    </vehicle>
    <vehicle id="256" depart="256.00">
        <route edges="gneE3 -gneE2"/>
    </vehicle>
    <vehicle id="258" depart="258.00">
        <route edges="gneE3 -gneE1"/>
    </vehicle>
    <vehicle id="259" depart="259.00">
        <route edges="gneE3 -gneE1"/>
    </vehicle>
    <vehicle id="260" depart="260.00">
        <route edges="gneE3 -gneE1"/>
    </vehicle>
    <vehicle id="261" depart="261.00">
        <route edges="gneE1 -gneE2"/>
    </vehicle>
    <vehicle id="264" depart="264.00">
        <route edges="gneE3 -gneE1"/>
    </vehicle>
    <vehicle id="265" depart="265.00">
        <route edges="gneE2 -gneE1"/>
    </vehicle>
    <vehicle id="266" depart="266.00">
        <route edges="gneE3 -gneE1"/>
    </vehicle>
    <vehicle id="267" depart="267.00">
        <route edges="gneE1 -gneE2"/>
    </vehicle>
    <vehicle id="268" depart="268.00">
        <route edges="gneE2 -gneE1"/>
    </vehicle>
    <vehicle id="270" depart="270.00">
        <route edges="gneE3 -gneE2"/>
    </vehicle>
    <vehicle id="274" depart="274.00">
        <route edges="gneE1 -gneE2"/>
    </vehicle>
    <vehicle id="276" depart="276.00">
        <route edges="gneE2 -gneE1"/>
    </vehicle>
    <vehicle id="277" depart="277.00">
        <route edges="gneE2 -gneE1"/>
    </vehicle>
    <vehicle id="278" depart="278.00">
        <route edges="gneE2 -gneE1"/>
    </vehicle>
    <vehicle id="279" depart="279.00">
        <route edges="gneE3 -gneE2"/>
    </vehicle>
    <vehicle id="281" depart="281.00">
        <route edges="gneE3 -gneE1"/>
    </vehicle>
    <vehicle id="284" depart="284.00">
        <route edges="gneE2 -gneE1"/>
    </vehicle>
    <vehicle id="286" depart="286.00">
        <route edges="gneE3 -gneE2"/>
    </vehicle>
    <vehicle id="287" depart="287.00">
        <route edges="gneE1 -gneE2"/>
    </vehicle>
    <vehicle id="289" depart="289.00">
        <route edges="gneE1 -gneE2"/>
    </vehicle>
    <vehicle id="290" depart="290.00">
        <route edges="gneE2 -gneE1"/>
    </vehicle>
    <vehicle id="291" depart="291.00">
        <route edges="gneE2 -gneE1"/>
    </vehicle>
    <vehicle id="292" depart="292.00">
        <route edges="gneE3 -gneE2"/>
    </vehicle>
    <vehicle id="294" depart="294.00">
        <route edges="gneE3 -gneE1"/>
    </vehicle>
    <vehicle id="296" depart="296.00">
        <route edges="gneE3 -gneE1"/>
    </vehicle>
    <vehicle id="297" depart="297.00">
        <route edges="gneE3 -gneE2"/>
    </vehicle>
    <vehicle id="298" depart="298.00">
        <route edges="gneE1 -gneE2"/>
    </vehicle>
    <vehicle id="299" depart="299.00">
        <route edges="gneE3 -gneE2"/>
    </vehicle>
    <vehicle id="300" depart="300.00">
        <route edges="gneE3 -gneE2"/>
    </vehicle>
    <vehicle id="301" depart="301.00">
        <route edges="gneE3 -gneE2"/>
    </vehicle>
    <vehicle id="303" depart="303.00">
        <route edges="gneE3 -gneE2"/>
    </vehicle>
    <vehicle id="304" depart="304.00">
        <route edges="gneE3 -gneE1"/>
    </vehicle>
    <vehicle id="305" depart="305.00">
        <route edges="gneE1 -gneE2"/>
    </vehicle>
    <vehicle id="306" depart="306.00">
        <route edges="gneE3 -gneE2"/>
    </vehicle>
    <vehicle id="309" depart="309.00">
        <route edges="gneE1 -gneE2"/>
    </vehicle>
    <vehicle id="310" depart="310.00">
        <route edges="gneE1 -gneE2"/>
    </vehicle>
    <vehicle id="311" depart="311.00">
        <route edges="gneE3 -gneE2"/>
    </vehicle>
    <vehicle id="313" depart="313.00">
        <route edges="gneE3 -gneE1"/>
    </vehicle>
    <vehicle id="315" depart="315.00">
        <route edges="gneE1 -gneE2"/>
    </vehicle>
    <vehicle id="316" depart="316.00">
        <route edges="gneE3 -gneE2"/>
    </vehicle>
    <vehicle id="317" depart="317.00">
        <route edges="gneE1 -gneE2"/>
    </vehicle>
    <vehicle id="318" depart="318.00">
        <route edges="gneE3 -gneE1"/>
    </vehicle>
    <vehicle id="319" depart="319.00">
        <route edges="gneE3 -gneE1"/>
    </vehicle>
    <vehicle id="320" depart="320.00">
        <route edges="gneE1 -gneE2"/>
    </vehicle>
    <vehicle id="321" depart="321.00">
        <route edges="gneE1 -gneE2"/>
    </vehicle>
    <vehicle id="323" depart="323.00">
        <route edges="gneE1 -gneE2"/>
    </vehicle>
    <vehicle id="325" depart="325.00">
        <route edges="gneE3 -gneE1"/>
    </vehicle>
    <vehicle id="327" depart="327.00">
        <route edges="gneE3 -gneE2"/>
    </vehicle>
    <vehicle id="328" depart="328.00">
        <route edges="gneE3 -gneE1"/>
    </vehicle>
    <vehicle id="329" depart="329.00">
        <route edges="gneE3 -gneE2"/>
    </vehicle>
    <vehicle id="330" depart="330.00">
        <route edges="gneE1 -gneE2"/>
    </vehicle>
    <vehicle id="331" depart="331.00">
        <route edges="gneE3 -gneE2"/>
    </vehicle>
    <vehicle id="334" depart="334.00">
        <route edges="gneE3 -gneE1"/>
    </vehicle>
    <vehicle id="335" depart="335.00">
        <route edges="gneE3 -gneE2"/>
    </vehicle>
    <vehicle id="337" depart="337.00">
        <route edges="gneE3 -gneE1"/>
    </vehicle>
    <vehicle id="339" depart="339.00">
        <route edges="gneE1 -gneE2"/>
    </vehicle>
    <vehicle id="340" depart="340.00">
        <route edges="gneE2 -gneE1"/>
    </vehicle>
    <vehicle id="343" depart="343.00">
        <route edges="gneE2 -gneE1"/>
    </vehicle>
    <vehicle id="344" depart="344.00">
        <route edges="gneE1 -gneE2"/>
    </vehicle>
    <vehicle id="345" depart="345.00">
        <route edges="gneE2 -gneE1"/>
    </vehicle>
    <vehicle id="347" depart="347.00">
        <route edges="gneE2 -gneE1"/>
    </vehicle>
    <vehicle id="348" depart="348.00">
        <route edges="gneE3 -gneE2"/>
    </vehicle>
    <vehicle id="350" depart="350.00">
        <route edges="gneE3 -gneE1"/>
    </vehicle>
    <vehicle id="352" depart="352.00">
        <route edges="gneE3 -gneE1"/>
    </vehicle>
    <vehicle id="354" depart="354.00">
        <route edges="gneE3 -gneE1"/>
    </vehicle>
    <vehicle id="356" depart="356.00">
        <route edges="gneE1 -gneE2"/>
    </vehicle>
    <vehicle id="357" depart="357.00">
        <route edges="gneE3 -gneE1"/>
    </vehicle>
    <vehicle id="360" depart="360.00">
        <route edges="gneE2 -gneE1"/>
    </vehicle>
    <vehicle id="362" depart="362.00">
        <route edges="gneE2 -gneE1"/>
    </vehicle>
    <vehicle id="363" depart="363.00">
        <route edges="gneE3 -gneE2"/>
    </vehicle>
    <vehicle id="364" depart="364.00">
        <route edges="gneE3 -gneE2"/>
    </vehicle>
    <vehicle id="369" depart="369.00">
        <route edges="gneE3 -gneE1"/>
    </vehicle>
    <vehicle id="370" depart="370.00">
        <route edges="gneE2 -gneE1"/>
    </vehicle>
    <vehicle id="372" depart="372.00">
        <route edges="gneE1 -gneE2"/>
    </vehicle>
    <vehicle id="373" depart="373.00">
        <route edges="gneE3 -gneE2"/>
    </vehicle>
    <vehicle id="374" depart="374.00">
        <route edges="gneE2 -gneE1"/>
    </vehicle>
    <vehicle id="375" depart="375.00">
        <route edges="gneE3 -gneE1"/>
    </vehicle>
    <vehicle id="376" depart="376.00">
        <route edges="gneE1 -gneE2"/>
    </vehicle>
    <vehicle id="377" depart="377.00">
        <route edges="gneE1 -gneE2"/>
    </vehicle>
    <vehicle id="379" depart="379.00">
        <route edges="gneE3 -gneE1"/>
    </vehicle>
    <vehicle id="380" depart="380.00">
        <route edges="gneE3 -gneE1"/>
    </vehicle>
    <vehicle id="382" depart="382.00">
        <route edges="gneE3 -gneE1"/>
    </vehicle>
    <vehicle id="383" depart="383.00">
        <route edges="gneE2 -gneE1"/>
    </vehicle>
    <vehicle id="384" depart="384.00">
        <route edges="gneE3 -gneE1"/>
    </vehicle>
    <vehicle id="386" depart="386.00">
        <route edges="gneE2 -gneE1"/>
    </vehicle>
    <vehicle id="387" depart="387.00">
        <route edges="gneE1 -gneE2"/>
    </vehicle>
    <vehicle id="388" depart="388.00">
        <route edges="gneE3 -gneE1"/>
    </vehicle>
    <vehicle id="389" depart="389.00">
        <route edges="gneE3 -gneE1"/>
    </vehicle>
    <vehicle id="390" depart="390.00">
        <route edges="gneE1 -gneE2"/>
    </vehicle>
    <vehicle id="391" depart="391.00">
        <route edges="gneE1 -gneE2"/>
    </vehicle>
    <vehicle id="395" depart="395.00">
        <route edges="gneE3 -gneE1"/>
    </vehicle>
    <vehicle id="396" depart="396.00">
        <route edges="gneE1 -gneE2"/>
    </vehicle>
    <vehicle id="398" depart="398.00">
        <route edges="gneE3 -gneE2"/>
    </vehicle>
    <vehicle id="399" depart="399.00">
        <route edges="gneE3 -gneE1"/>
    </vehicle>
    <vehicle id="400" depart="400.00">
        <route edges="gneE2 -gneE1"/>
    </vehicle>
    <vehicle id="401" depart="401.00">
        <route edges="gneE3 -gneE2"/>
    </vehicle>
    <vehicle id="402" depart="402.00">
        <route edges="gneE2 -gneE1"/>
    </vehicle>
    <vehicle id="403" depart="403.00">
        <route edges="gneE3 -gneE1"/>
    </vehicle>
    <vehicle id="404" depart="404.00">
        <route edges="gneE3 -gneE1"/>
    </vehicle>
    <vehicle id="405" depart="405.00">
        <route edges="gneE3 -gneE2"/>
    </vehicle>
    <vehicle id="406" depart="406.00">
        <route edges="gneE2 -gneE1"/>
    </vehicle>
    <vehicle id="408" depart="408.00">
        <route edges="gneE1 -gneE2"/>
    </vehicle>
    <vehicle id="411" depart="411.00">
        <route edges="gneE1 -gneE2"/>
    </vehicle>
    <vehicle id="412" depart="412.00">
        <route edges="gneE3 -gneE2"/>
    </vehicle>
    <vehicle id="413" depart="413.00">
        <route edges="gneE1 -gneE2"/>
    </vehicle>
    <vehicle id="415" depart="415.00">
        <route edges="gneE3 -gneE1"/>
    </vehicle>
    <vehicle id="417" depart="417.00">
        <route edges="gneE3 -gneE1"/>
    </vehicle>
    <vehicle id="420" depart="420.00">
        <route edges="gneE3 -gneE2"/>
    </vehicle>
    <vehicle id="421" depart="421.00">
        <route edges="gneE2 -gneE1"/>
    </vehicle>
    <vehicle id="422" depart="422.00">
        <route edges="gneE2 -gneE1"/>
    </vehicle>
    <vehicle id="423" depart="423.00">
        <route edges="gneE3 -gneE1"/>
    </vehicle>
    <vehicle id="425" depart="425.00">
        <route edges="gneE3 -gneE1"/>
    </vehicle>
    <vehicle id="426" depart="426.00">
        <route edges="gneE1 -gneE2"/>
    </vehicle>
    <vehicle id="428" depart="428.00">
        <route edges="gneE3 -gneE1"/>
    </vehicle>
    <vehicle id="430" depart="430.00">
        <route edges="gneE2 -gneE1"/>
    </vehicle>
    <vehicle id="431" depart="431.00">
        <route edges="gneE1 -gneE2"/>
    </vehicle>
    <vehicle id="432" depart="432.00">
        <route edges="gneE1 -gneE2"/>
    </vehicle>
    <vehicle id="435" depart="435.00">
        <route edges="gneE3 -gneE1"/>
    </vehicle>
    <vehicle id="436" depart="436.00">
        <route edges="gneE2 -gneE1"/>
    </vehicle>
    <vehicle id="438" depart="438.00">
        <route edges="gneE1 -gneE2"/>
    </vehicle>
    <vehicle id="439" depart="439.00">
        <route edges="gneE3 -gneE2"/>
    </vehicle>
    <vehicle id="440" depart="440.00">
        <route edges="gneE1 -gneE2"/>
    </vehicle>
    <vehicle id="441" depart="441.00">
        <route edges="gneE2 -gneE1"/>
    </vehicle>
    <vehicle id="442" depart="442.00">
        <route edges="gneE1 -gneE2"/>
    </vehicle>
    <vehicle id="443" depart="443.00">
        <route edges="gneE3 -gneE1"/>
    </vehicle>
    <vehicle id="446" depart="446.00">
        <route edges="gneE2 -gneE1"/>
    </vehicle>
    <vehicle id="448" depart="448.00">
        <route edges="gneE2 -gneE1"/>
    </vehicle>
    <vehicle id="449" depart="449.00">
        <route edges="gneE3 -gneE2"/>
    </vehicle>
    <vehicle id="450" depart="450.00">
        <route edges="gneE1 -gneE2"/>
    </vehicle>
    <vehicle id="452" depart="452.00">
        <route edges="gneE1 -gneE2"/>
    </vehicle>
    <vehicle id="454" depart="454.00">
        <route edges="gneE1 -gneE2"/>
    </vehicle>
    <vehicle id="455" depart="455.00">
        <route edges="gneE3 -gneE2"/>
    </vehicle>
    <vehicle id="456" depart="456.00">
        <route edges="gneE3 -gneE1"/>
    </vehicle>
    <vehicle id="457" depart="457.00">
        <route edges="gneE2 -gneE1"/>
    </vehicle>
    <vehicle id="459" depart="459.00">
        <route edges="gneE1 -gneE2"/>
    </vehicle>
    <vehicle id="461" depart="461.00">
        <route edges="gneE2 -gneE1"/>
    </vehicle>
    <vehicle id="462" depart="462.00">
        <route edges="gneE3 -gneE2"/>
    </vehicle>
    <vehicle id="464" depart="464.00">
        <route edges="gneE2 -gneE1"/>
    </vehicle>
    <vehicle id="466" depart="466.00">
        <route edges="gneE2 -gneE1"/>
    </vehicle>
    <vehicle id="469" depart="469.00">
        <route edges="gneE3 -gneE2"/>
    </vehicle>
    <vehicle id="470" depart="470.00">
        <route edges="gneE1 -gneE2"/>
    </vehicle>
    <vehicle id="473" depart="473.00">
        <route edges="gneE2 -gneE1"/>
    </vehicle>
    <vehicle id="478" depart="478.00">
        <route edges="gneE3 -gneE2"/>
    </vehicle>