<?xml version="1.0" encoding="UTF-8"?>

<!-- generated on Sun May  6 19:48:16 2018 by SUMO duarouter Version 0.30.0
<?xml version="1.0" encoding="UTF-8"?>

<configuration xmlns:xsi="http://www.w3.org/2001/XMLSchema-instance" xsi:noNamespaceSchemaLocation="http://sumo.dlr.de/xsd/duarouterConfiguration.xsd">

    <input>
        <net-file value="simple_T/simple_T.net.xml"/>
        <route-files value="trips.trips.xml"/>
    </input>

    <output>
        <output-file value="simple_T/route/simple_T-1.0-4.rou.xml"/>
    </output>

    <processing>
        <ignore-errors value="true"/>
    </processing>

    <time>
        <begin value="0.0"/>
        <end value="1000.0"/>
    </time>

    <report>
        <no-warnings value="true"/>
        <no-step-log value="true"/>
    </report>

</configuration>
-->

<routes xmlns:xsi="http://www.w3.org/2001/XMLSchema-instance" xsi:noNamespaceSchemaLocation="http://sumo.dlr.de/xsd/routes_file.xsd">
    <vehicle id="0" depart="0.00">
        <route edges="gneE1 -gneE2"/>
    </vehicle>
    <vehicle id="1" depart="1.00">
        <route edges="gneE1 -gneE2"/>
    </vehicle>
    <vehicle id="3" depart="3.00">
        <route edges="gneE2 -gneE1"/>
    </vehicle>
    <vehicle id="4" depart="4.00">
        <route edges="gneE3 -gneE1"/>
    </vehicle>
    <vehicle id="5" depart="5.00">
        <route edges="gneE2 -gneE1"/>
    </vehicle>
    <vehicle id="6" depart="6.00">
        <route edges="gneE3 -gneE1"/>
    </vehicle>
    <vehicle id="8" depart="8.00">
        <route edges="gneE3 -gneE2"/>
    </vehicle>
    <vehicle id="9" depart="9.00">
        <route edges="gneE3 -gneE2"/>
    </vehicle>
    <vehicle id="10" depart="10.00">
        <route edges="gneE2 -gneE1"/>
    </vehicle>
    <vehicle id="12" depart="12.00">
        <route edges="gneE3 -gneE1"/>
    </vehicle>
    <vehicle id="14" depart="14.00">
        <route edges="gneE3 -gneE2"/>
    </vehicle>
    <vehicle id="16" depart="16.00">
        <route edges="gneE3 -gneE2"/>
    </vehicle>
    <vehicle id="18" depart="18.00">
        <route edges="gneE1 -gneE2"/>
    </vehicle>
    <vehicle id="19" depart="19.00">
        <route edges="gneE2 -gneE1"/>
    </vehicle>
    <vehicle id="21" depart="21.00">
        <route edges="gneE1 -gneE2"/>
    </vehicle>
    <vehicle id="22" depart="22.00">
        <route edges="gneE2 -gneE1"/>
    </vehicle>
    <vehicle id="24" depart="24.00">
        <route edges="gneE1 -gneE2"/>
    </vehicle>
    <vehicle id="25" depart="25.00">
        <route edges="gneE2 -gneE1"/>
    </vehicle>
    <vehicle id="27" depart="27.00">
        <route edges="gneE3 -gneE1"/>
    </vehicle>
    <vehicle id="28" depart="28.00">
        <route edges="gneE1 -gneE2"/>
    </vehicle>
    <vehicle id="31" depart="31.00">
        <route edges="gneE3 -gneE2"/>
    </vehicle>
    <vehicle id="32" depart="32.00">
        <route edges="gneE2 -gneE1"/>
    </vehicle>
    <vehicle id="33" depart="33.00">
        <route edges="gneE2 -gneE1"/>
    </vehicle>
    <vehicle id="35" depart="35.00">
        <route edges="gneE2 -gneE1"/>
    </vehicle>
    <vehicle id="38" depart="38.00">
        <route edges="gneE3 -gneE1"/>
    </vehicle>
    <vehicle id="40" depart="40.00">
        <route edges="gneE1 -gneE2"/>
    </vehicle>
    <vehicle id="42" depart="42.00">
        <route edges="gneE3 -gneE2"/>
    </vehicle>
    <vehicle id="43" depart="43.00">
        <route edges="gneE2 -gneE1"/>
    </vehicle>
    <vehicle id="44" depart="44.00">
        <route edges="gneE1 -gneE2"/>
    </vehicle>
    <vehicle id="45" depart="45.00">
        <route edges="gneE3 -gneE1"/>
    </vehicle>
    <vehicle id="46" depart="46.00">
        <route edges="gneE1 -gneE2"/>
    </vehicle>
    <vehicle id="47" depart="47.00">
        <route edges="gneE3 -gneE2"/>
    </vehicle>
    <vehicle id="49" depart="49.00">
        <route edges="gneE3 -gneE1"/>
    </vehicle>
    <vehicle id="50" depart="50.00">
        <route edges="gneE1 -gneE2"/>
    </vehicle>
    <vehicle id="51" depart="51.00">
        <route edges="gneE1 -gneE2"/>
    </vehicle>
    <vehicle id="52" depart="52.00">
        <route edges="gneE3 -gneE2"/>
    </vehicle>
    <vehicle id="53" depart="53.00">
        <route edges="gneE1 -gneE2"/>
    </vehicle>
    <vehicle id="55" depart="55.00">
        <route edges="gneE3 -gneE1"/>
    </vehicle>
    <vehicle id="57" depart="57.00">
        <route edges="gneE3 -gneE2"/>
    </vehicle>
    <vehicle id="58" depart="58.00">
        <route edges="gneE3 -gneE1"/>
    </vehicle>
    <vehicle id="59" depart="59.00">
        <route edges="gneE3 -gneE1"/>
    </vehicle>
    <vehicle id="60" depart="60.00">
        <route edges="gneE2 -gneE1"/>
    </vehicle>
    <vehicle id="61" depart="61.00">
        <route edges="gneE3 -gneE2"/>
    </vehicle>
    <vehicle id="62" depart="62.00">
        <route edges="gneE3 -gneE2"/>
    </vehicle>
    <vehicle id="63" depart="63.00">
        <route edges="gneE2 -gneE1"/>
    </vehicle>
    <vehicle id="64" depart="64.00">
        <route edges="gneE1 -gneE2"/>
    </vehicle>
    <vehicle id="65" depart="65.00">
        <route edges="gneE1 -gneE2"/>
    </vehicle>
    <vehicle id="66" depart="66.00">
        <route edges="gneE3 -gneE1"/>
    </vehicle>
    <vehicle id="68" depart="68.00">
        <route edges="gneE3 -gneE1"/>
    </vehicle>
    <vehicle id="69" depart="69.00">
        <route edges="gneE3 -gneE1"/>
    </vehicle>
    <vehicle id="70" depart="70.00">
        <route edges="gneE2 -gneE1"/>
    </vehicle>
    <vehicle id="71" depart="71.00">
        <route edges="gneE3 -gneE1"/>
    </vehicle>
    <vehicle id="72" depart="72.00">
        <route edges="gneE3 -gneE2"/>
    </vehicle>
    <vehicle id="73" depart="73.00">
        <route edges="gneE3 -gneE1"/>
    </vehicle>
    <vehicle id="74" depart="74.00">
        <route edges="gneE3 -gneE2"/>
    </vehicle>
    <vehicle id="75" depart="75.00">
        <route edges="gneE3 -gneE1"/>
    </vehicle>
    <vehicle id="76" depart="76.00">
        <route edges="gneE3 -gneE2"/>
    </vehicle>
    <vehicle id="77" depart="77.00">
        <route edges="gneE2 -gneE1"/>
    </vehicle>
    <vehicle id="78" depart="78.00">
        <route edges="gneE3 -gneE2"/>
    </vehicle>
    <vehicle id="79" depart="79.00">
        <route edges="gneE1 -gneE2"/>
    </vehicle>
    <vehicle id="80" depart="80.00">
        <route edges="gneE3 -gneE1"/>
    </vehicle>
    <vehicle id="81" depart="81.00">
        <route edges="gneE3 -gneE1"/>
    </vehicle>
    <vehicle id="83" depart="83.00">
        <route edges="gneE2 -gneE1"/>
    </vehicle>
    <vehicle id="84" depart="84.00">
        <route edges="gneE1 -gneE2"/>
    </vehicle>
    <vehicle id="85" depart="85.00">
        <route edges="gneE3 -gneE2"/>
    </vehicle>
    <vehicle id="87" depart="87.00">
        <route edges="gneE2 -gneE1"/>
    </vehicle>
    <vehicle id="88" depart="88.00">
        <route edges="gneE3 -gneE2"/>
    </vehicle>
    <vehicle id="89" depart="89.00">
        <route edges="gneE3 -gneE1"/>
    </vehicle>
    <vehicle id="90" depart="90.00">
        <route edges="gneE2 -gneE1"/>
    </vehicle>
    <vehicle id="92" depart="92.00">
        <route edges="gneE1 -gneE2"/>
    </vehicle>
    <vehicle id="93" depart="93.00">
        <route edges="gneE1 -gneE2"/>
    </vehicle>
    <vehicle id="94" depart="94.00">
        <route edges="gneE2 -gneE1"/>
    </vehicle>
    <vehicle id="95" depart="95.00">
        <route edges="gneE3 -gneE2"/>
    </vehicle>
    <vehicle id="97" depart="97.00">
        <route edges="gneE3 -gneE2"/>
    </vehicle>
    <vehicle id="98" depart="98.00">
        <route edges="gneE1 -gneE2"/>
    </vehicle>
    <vehicle id="99" depart="99.00">
        <route edges="gneE3 -gneE2"/>
    </vehicle>
    <vehicle id="100" depart="100.00">
        <route edges="gneE1 -gneE2"/>
    </vehicle>
    <vehicle id="101" depart="101.00">
        <route edges="gneE3 -gneE2"/>
    </vehicle>
    <vehicle id="103" depart="103.00">
        <route edges="gneE2 -gneE1"/>
    </vehicle>
    <vehicle id="105" depart="105.00">
        <route edges="gneE3 -gneE2"/>
    </vehicle>
    <vehicle id="106" depart="106.00">
        <route edges="gneE2 -gneE1"/>
    </vehicle>
    <vehicle id="107" depart="107.00">
        <route edges="gneE3 -gneE2"/>
    </vehicle>
    <vehicle id="108" depart="108.00">
        <route edges="gneE3 -gneE2"/>
    </vehicle>
    <vehicle id="109" depart="109.00">
        <route edges="gneE1 -gneE2"/>
    </vehicle>
    <vehicle id="110" depart="110.00">
        <route edges="gneE3 -gneE2"/>
    </vehicle>
    <vehicle id="111" depart="111.00">
        <route edges="gneE3 -gneE1"/>
    </vehicle>
    <vehicle id="112" depart="112.00">
        <route edges="gneE3 -gneE1"/>
    </vehicle>
    <vehicle id="117" depart="117.00">
        <route edges="gneE1 -gneE2"/>
    </vehicle>
    <vehicle id="118" depart="118.00">
        <route edges="gneE1 -gneE2"/>
    </vehicle>
    <vehicle id="120" depart="120.00">
        <route edges="gneE2 -gneE1"/>
    </vehicle>
    <vehicle id="124" depart="124.00">
        <route edges="gneE3 -gneE2"/>
    </vehicle>
    <vehicle id="126" depart="126.00">
        <route edges="gneE3 -gneE1"/>
    </vehicle>
    <vehicle id="127" depart="127.00">
        <route edges="gneE3 -gneE1"/>
    </vehicle>
    <vehicle id="128" depart="128.00">
        <route edges="gneE1 -gneE2"/>
    </vehicle>
    <vehicle id="130" depart="130.00">
        <route edges="gneE3 -gneE2"/>
    </vehicle>
    <vehicle id="131" depart="131.00">
        <route edges="gneE3 -gneE1"/>
    </vehicle>
    <vehicle id="132" depart="132.00">
        <route edges="gneE3 -gneE2"/>
    </vehicle>
    <vehicle id="133" depart="133.00">
        <route edges="gneE2 -gneE1"/>
    </vehicle>
    <vehicle id="135" depart="135.00">
        <route edges="gneE2 -gneE1"/>
    </vehicle>
    <vehicle id="136" depart="136.00">
        <route edges="gneE2 -gneE1"/>
    </vehicle>
    <vehicle id="137" depart="137.00">
        <route edges="gneE2 -gneE1"/>
    </vehicle>
    <vehicle id="138" depart="138.00">
        <route edges="gneE2 -gneE1"/>
    </vehicle>
    <vehicle id="139" depart="139.00">
        <route edges="gneE3 -gneE1"/>
    </vehicle>
    <vehicle id="142" depart="142.00">
        <route edges="gneE3 -gneE1"/>
    </vehicle>
    <vehicle id="144" depart="144.00">
        <route edges="gneE3 -gneE2"/>
    </vehicle>
    <vehicle id="145" depart="145.00">
        <route edges="gneE3 -gneE2"/>
    </vehicle>
    <vehicle id="146" depart="146.00">
        <route edges="gneE2 -gneE1"/>
    </vehicle>
    <vehicle id="147" depart="147.00">
        <route edges="gneE3 -gneE2"/>
    </vehicle>
    <vehicle id="148" depart="148.00">
        <route edges="gneE1 -gneE2"/>
    </vehicle>
    <vehicle id="150" depart="150.00">
        <route edges="gneE2 -gneE1"/>
    </vehicle>
    <vehicle id="152" depart="152.00">
        <route edges="gneE2 -gneE1"/>
    </vehicle>
    <vehicle id="153" depart="153.00">
        <route edges="gneE2 -gneE1"/>
    </vehicle>
    <vehicle id="154" depart="154.00">
        <route edges="gneE1 -gneE2"/>
    </vehicle>
    <vehicle id="156" depart="156.00">
        <route edges="gneE1 -gneE2"/>
    </vehicle>
    <vehicle id="157" depart="157.00">
        <route edges="gneE3 -gneE1"/>
    </vehicle>
    <vehicle id="159" depart="159.00">
        <route edges="gneE2 -gneE1"/>
    </vehicle>
    <vehicle id="161" depart="161.00">
        <route edges="gneE1 -gneE2"/>
    </vehicle>
    <vehicle id="162" depart="162.00">
        <route edges="gneE3 -gneE2"/>
    </vehicle>
    <vehicle id="164" depart="164.00">
        <route edges="gneE3 -gneE2"/>
    </vehicle>
    <vehicle id="165" depart="165.00">
        <route edges="gneE1 -gneE2"/>
    </vehicle>
    <vehicle id="169" depart="169.00">
        <route edges="gneE3 -gneE2"/>
    </vehicle>
    <vehicle id="170" depart="170.00">
        <route edges="gneE1 -gneE2"/>
    </vehicle>
    <vehicle id="171" depart="171.00">
        <route edges="gneE3 -gneE2"/>
    </vehicle>
    <vehicle id="172" depart="172.00">
        <route edges="gneE3 -gneE1"/>
    </vehicle>
    <vehicle id="173" depart="173.00">
        <route edges="gneE3 -gneE1"/>
    </vehicle>
    <vehicle id="174" depart="174.00">
        <route edges="gneE2 -gneE1"/>
    </vehicle>
    <vehicle id="176" depart="176.00">
        <route edges="gneE3 -gneE2"/>
    </vehicle>
    <vehicle id="177" depart="177.00">
        <route edges="gneE3 -gneE1"/>
    </vehicle>
    <vehicle id="179" depart="179.00">
        <route edges="gneE3 -gneE2"/>
    </vehicle>
    <vehicle id="180" depart="180.00">
        <route edges="gneE1 -gneE2"/>
    </vehicle>
    <vehicle id="181" depart="181.00">
        <route edges="gneE2 -gneE1"/>
    </vehicle>
    <vehicle id="182" depart="182.00">
        <route edges="gneE1 -gneE2"/>
    </vehicle>
    <vehicle id="183" depart="183.00">
        <route edges="gneE3 -gneE1"/>
    </vehicle>
    <vehicle id="185" depart="185.00">
        <route edges="gneE3 -gneE1"/>
    </vehicle>
    <vehicle id="187" depart="187.00">
        <route edges="gneE1 -gneE2"/>
    </vehicle>
    <vehicle id="189" depart="189.00">
        <route edges="gneE1 -gneE2"/>
    </vehicle>
    <vehicle id="190" depart="190.00">
        <route edges="gneE1 -gneE2"/>
    </vehicle>
    <vehicle id="191" depart="191.00">
        <route edges="gneE3 -gneE2"/>
    </vehicle>
    <vehicle id="193" depart="193.00">
        <route edges="gneE3 -gneE2"/>
    </vehicle>
    <vehicle id="196" depart="196.00">
        <route edges="gneE1 -gneE2"/>
    </vehicle>
    <vehicle id="197" depart="197.00">
        <route edges="gneE3 -gneE1"/>
    </vehicle>
    <vehicle id="198" depart="198.00">
        <route edges="gneE1 -gneE2"/>
    </vehicle>
    <vehicle id="200" depart="200.00">
        <route edges="gneE3 -gneE1"/>
    </vehicle>
    <vehicle id="201" depart="201.00">
        <route edges="gneE3 -gneE1"/>
    </vehicle>
    <vehicle id="202" depart="202.00">
        <route edges="gneE2 -gneE1"/>
    </vehicle>
    <vehicle id="203" depart="203.00">
        <route edges="gneE3 -gneE2"/>
    </vehicle>
    <vehicle id="207" depart="207.00">
        <route edges="gneE3 -gneE2"/>
    </vehicle>
    <vehicle id="208" depart="208.00">
        <route edges="gneE2 -gneE1"/>
    </vehicle>
    <vehicle id="209" depart="209.00">
        <route edges="gneE2 -gneE1"/>
    </vehicle>
    <vehicle id="211" depart="211.00">
        <route edges="gneE2 -gneE1"/>
    </vehicle>
    <vehicle id="212" depart="212.00">
        <route edges="gneE1 -gneE2"/>
    </vehicle>
    <vehicle id="213" depart="213.00">
        <route edges="gneE3 -gneE1"/>
    </vehicle>
    <vehicle id="214" depart="214.00">
        <route edges="gneE3 -gneE2"/>
    </vehicle>
    <vehicle id="215" depart="215.00">
        <route edges="gneE3 -gneE1"/>
    </vehicle>
    <vehicle id="216" depart="216.00">
        <route edges="gneE3 -gneE1"/>
    </vehicle>
    <vehicle id="219" depart="219.00">
        <route edges="gneE3 -gneE2"/>
    </vehicle>
    <vehicle id="220" depart="220.00">
        <route edges="gneE1 -gneE2"/>
    </vehicle>
    <vehicle id="221" depart="221.00">
        <route edges="gneE3 -gneE1"/>
    </vehicle>
    <vehicle id="224" depart="224.00">
        <route edges="gneE1 -gneE2"/>
    </vehicle>
    <vehicle id="225" depart="225.00">
        <route edges="gneE3 -gneE1"/>
    </vehicle>
    <vehicle id="226" depart="226.00">
        <route edges="gneE3 -gneE1"/>
    </vehicle>
    <vehicle id="227" depart="227.00">
        <route edges="gneE1 -gneE2"/>
    </vehicle>
    <vehicle id="228" depart="228.00">
        <route edges="gneE1 -gneE2"/>
    </vehicle>
    <vehicle id="229" depart="229.00">
        <route edges="gneE3 -gneE1"/>
    </vehicle>
    <vehicle id="230" depart="230.00">
        <route edges="gneE2 -gneE1"/>
    </vehicle>
    <vehicle id="231" depart="231.00">
        <route edges="gneE2 -gneE1"/>
    </vehicle>
    <vehicle id="233" depart="233.00">
        <route edges="gneE3 -gneE1"/>
    </vehicle>
    <vehicle id="235" depart="235.00">
        <route edges="gneE2 -gneE1"/>
    </vehicle>
    <vehicle id="236" depart="236.00">
        <route edges="gneE1 -gneE2"/>
    </vehicle>
    <vehicle id="237" depart="237.00">
        <route edges="gneE3 -gneE1"/>
    </vehicle>
    <vehicle id="238" depart="238.00">
        <route edges="gneE2 -gneE1"/>
    </vehicle>
    <vehicle id="240" depart="240.00">
        <route edges="gneE3 -gneE2"/>
    </vehicle>
    <vehicle id="241" depart="241.00">
        <route edges="gneE3 -gneE1"/>
    </vehicle>
    <vehicle id="242" depart="242.00">
        <route edges="gneE3 -gneE2"/>
    </vehicle>
    <vehicle id="243" depart="243.00">
        <route edges="gneE2 -gneE1"/>
    </vehicle>
    <vehicle id="244" depart="244.00">
        <route edges="gneE3 -gneE2"/>
    </vehicle>
    <vehicle id="245" depart="245.00">
        <route edges="gneE2 -gneE1"/>
    </vehicle>
    <vehicle id="246" depart="246.00">
        <route edges="gneE3 -gneE2"/>
    </vehicle>
    <vehicle id="247" depart="247.00">
        <route edges="gneE1 -gneE2"/>
    </vehicle>
    <vehicle id="248" depart="248.00">
        <route edges="gneE1 -gneE2"/>
    </vehicle>
    <vehicle id="250" depart="250.00">
        <route edges="gneE1 -gneE2"/>
    </vehicle>
    <vehicle id="251" depart="251.00">
        <route edges="gneE3 -gneE2"/>
    </vehicle>
    <vehicle id="254" depart="254.00">
        <route edges="gneE3 -gneE2"/>
    </vehicle>
    <vehicle id="255" depart="255.00">
        <route edges="gneE1 -gneE2"/>
    </vehicle>
    <vehicle id="257" depart="257.00">
        <route edges="gneE3 -gneE1"/>
    </vehicle>
    <vehicle id="258" depart="258.00">
        <route edges="gneE2 -gneE1"/>
    </vehicle>
    <vehicle id="259" depart="259.00">
        <route edges="gneE3 -gneE1"/>
    </vehicle>
    <vehicle id="260" depart="260.00">
        <route edges="gneE2 -gneE1"/>
    </vehicle>
    <vehicle id="261" depart="261.00">
        <route edges="gneE3 -gneE1"/>
    </vehicle>
    <vehicle id="262" depart="262.00">
        <route edges="gneE3 -gneE2"/>
    </vehicle>
    <vehicle id="264" depart="264.00">
        <route edges="gneE3 -gneE1"/>
    </vehicle>
    <vehicle id="265" depart="265.00">
        <route edges="gneE3 -gneE2"/>
    </vehicle>
    <vehicle id="268" depart="268.00">
        <route edges="gneE1 -gneE2"/>
    </vehicle>
    <vehicle id="269" depart="269.00">
        <route edges="gneE1 -gneE2"/>
    </vehicle>
    <vehicle id="270" depart="270.00">
        <route edges="gneE1 -gneE2"/>
    </vehicle>
    <vehicle id="271" depart="271.00">
        <route edges="gneE1 -gneE2"/>
    </vehicle>
    <vehicle id="273" depart="273.00">
        <route edges="gneE2 -gneE1"/>
    </vehicle>
    <vehicle id="276" depart="276.00">
        <route edges="gneE3 -gneE2"/>
    </vehicle>
    <vehicle id="277" depart="277.00">
        <route edges="gneE3 -gneE1"/>
    </vehicle>
    <vehicle id="278" depart="278.00">
        <route edges="gneE1 -gneE2"/>
    </vehicle>
    <vehicle id="279" depart="279.00">
        <route edges="gneE3 -gneE2"/>
    </vehicle>
    <vehicle id="280" depart="280.00">
        <route edges="gneE1 -gneE2"/>
    </vehicle>
    <vehicle id="282" depart="282.00">
        <route edges="gneE3 -gneE1"/>
    </vehicle>
    <vehicle id="284" depart="284.00">
        <route edges="gneE3 -gneE1"/>
    </vehicle>
    <vehicle id="285" depart="285.00">
        <route edges="gneE2 -gneE1"/>
    </vehicle>
    <vehicle id="286" depart="286.00">
        <route edges="gneE2 -gneE1"/>
    </vehicle>
    <vehicle id="287" depart="287.00">
        <route edges="gneE3 -gneE1"/>
    </vehicle>
    <vehicle id="288" depart="288.00">
        <route edges="gneE3 -gneE2"/>
    </vehicle>
    <vehicle id="290" depart="290.00">
        <route edges="gneE3 -gneE2"/>
    </vehicle>
    <vehicle id="291" depart="291.00">
        <route edges="gneE3 -gneE1"/>
    </vehicle>
    <vehicle id="292" depart="292.00">
        <route edges="gneE1 -gneE2"/>
    </vehicle>
    <vehicle id="293" depart="293.00">
        <route edges="gneE2 -gneE1"/>
    </vehicle>
    <vehicle id="295" depart="295.00">
        <route edges="gneE1 -gneE2"/>
    </vehicle>
    <vehicle id="297" depart="297.00">
        <route edges="gneE3 -gneE1"/>
    </vehicle>
    <vehicle id="299" depart="299.00">
        <route edges="gneE1 -gneE2"/>
    </vehicle>
    <vehicle id="300" depart="300.00">
        <route edges="gneE3 -gneE1"/>
    </vehicle>
    <vehicle id="301" depart="301.00">
        <route edges="gneE3 -gneE2"/>
    </vehicle>
    <vehicle id="302" depart="302.00">
        <route edges="gneE3 -gneE1"/>
    </vehicle>
    <vehicle id="304" depart="304.00">
        <route edges="gneE3 -gneE2"/>
    </vehicle>
    <vehicle id="305" depart="305.00">
        <route edges="gneE1 -gneE2"/>
    </vehicle>
    <vehicle id="307" depart="307.00">
        <route edges="gneE1 -gneE2"/>
    </vehicle>
    <vehicle id="309" depart="309.00">
        <route edges="gneE1 -gneE2"/>
    </vehicle>
    <vehicle id="311" depart="311.00">
        <route edges="gneE2 -gneE1"/>
    </vehicle>
    <vehicle id="312" depart="312.00">
        <route edges="gneE3 -gneE2"/>
    </vehicle>
    <vehicle id="313" depart="313.00">
        <route edges="gneE1 -gneE2"/>
    </vehicle>
    <vehicle id="316" depart="316.00">
        <route edges="gneE3 -gneE2"/>
    </vehicle>
    <vehicle id="318" depart="318.00">
        <route edges="gneE1 -gneE2"/>
    </vehicle>
    <vehicle id="319" depart="319.00">
        <route edges="gneE3 -gneE2"/>
    </vehicle>
    <vehicle id="320" depart="320.00">
        <route edges="gneE2 -gneE1"/>
    </vehicle>
    <vehicle id="322" depart="322.00">
        <route edges="gneE3 -gneE1"/>
    </vehicle>
    <vehicle id="323" depart="323.00">
        <route edges="gneE2 -gneE1"/>
    </vehicle>
    <vehicle id="325" depart="325.00">
        <route edges="gneE1 -gneE2"/>
    </vehicle>
    <vehicle id="326" depart="326.00">
        <route edges="gneE3 -gneE2"/>
    </vehicle>
    <vehicle id="327" depart="327.00">
        <route edges="gneE3 -gneE2"/>
    </vehicle>
    <vehicle id="328" depart="328.00">
        <route edges="gneE2 -gneE1"/>
    </vehicle>
    <vehicle id="329" depart="329.00">
        <route edges="gneE3 -gneE2"/>
    </vehicle>
    <vehicle id="330" depart="330.00">
        <route edges="gneE3 -gneE2"/>
    </vehicle>
    <vehicle id="332" depart="332.00">
        <route edges="gneE2 -gneE1"/>
    </vehicle>
    <vehicle id="334" depart="334.00">
        <route edges="gneE3 -gneE2"/>
    </vehicle>
    <vehicle id="339" depart="339.00">
        <route edges="gneE3 -gneE1"/>
    </vehicle>
    <vehicle id="340" depart="340.00">
        <route edges="gneE1 -gneE2"/>
    </vehicle>
    <vehicle id="341" depart="341.00">
        <route edges="gneE3 -gneE1"/>
    </vehicle>
    <vehicle id="343" depart="343.00">
        <route edges="gneE1 -gneE2"/>
    </vehicle>
    <vehicle id="345" depart="345.00">
        <route edges="gneE1 -gneE2"/>
    </vehicle>
    <vehicle id="346" depart="346.00">
        <route edges="gneE1 -gneE2"/>
    </vehicle>
    <vehicle id="348" depart="348.00">
        <route edges="gneE3 -gneE2"/>
    </vehicle>
    <vehicle id="349" depart="349.00">
        <route edges="gneE3 -gneE1"/>
    </vehicle>
    <vehicle id="350" depart="350.00">
        <route edges="gneE2 -gneE1"/>
    </vehicle>
    <vehicle id="352" depart="352.00">
        <route edges="gneE2 -gneE1"/>
    </vehicle>
    <vehicle id="353" depart="353.00">
        <route edges="gneE1 -gneE2"/>
    </vehicle>
    <vehicle id="358" depart="358.00">
        <route edges="gneE2 -gneE1"/>
    </vehicle>
    <vehicle id="359" depart="359.00">
        <route edges="gneE1 -gneE2"/>
    </vehicle>
    <vehicle id="360" depart="360.00">
        <route edges="gneE2 -gneE1"/>
    </vehicle>
    <vehicle id="362" depart="362.00">
        <route edges="gneE3 -gneE1"/>
    </vehicle>
    <vehicle id="363" depart="363.00">
        <route edges="gneE3 -gneE2"/>
    </vehicle>
    <vehicle id="365" depart="365.00">
        <route edges="gneE3 -gneE1"/>
    </vehicle>
    <vehicle id="366" depart="366.00">
        <route edges="gneE1 -gneE2"/>
    </vehicle>
    <vehicle id="367" depart="367.00">
        <route edges="gneE1 -gneE2"/>
    </vehicle>
    <vehicle id="368" depart="368.00">
        <route edges="gneE3 -gneE2"/>
    </vehicle>
    <vehicle id="369" depart="369.00">
        <route edges="gneE3 -gneE2"/>
    </vehicle>
    <vehicle id="371" depart="371.00">
        <route edges="gneE3 -gneE2"/>
    </vehicle>
    <vehicle id="374" depart="374.00">
        <route edges="gneE1 -gneE2"/>
    </vehicle>
    <vehicle id="375" depart="375.00">
        <route edges="gneE1 -gneE2"/>
    </vehicle>
    <vehicle id="376" depart="376.00">
        <route edges="gneE3 -gneE2"/>
    </vehicle>
    <vehicle id="377" depart="377.00">
        <route edges="gneE3 -gneE1"/>
    </vehicle>
    <vehicle id="378" depart="378.00">
        <route edges="gneE3 -gneE2"/>
    </vehicle>
    <vehicle id="380" depart="380.00">
        <route edges="gneE3 -gneE2"/>
    </vehicle>
    <vehicle id="382" depart="382.00">
        <route edges="gneE3 -gneE2"/>
    </vehicle>
    <vehicle id="383" depart="383.00">
        <route edges="gneE2 -gneE1"/>
    </vehicle>
    <vehicle id="384" depart="384.00">
        <route edges="gneE2 -gneE1"/>
    </vehicle>
    <vehicle id="385" depart="385.00">
        <route edges="gneE3 -gneE1"/>
    </vehicle>
    <vehicle id="387" depart="387.00">
        <route edges="gneE2 -gneE1"/>
    </vehicle>
    <vehicle id="392" depart="392.00">
        <route edges="gneE3 -gneE2"/>
    </vehicle>
    <vehicle id="393" depart="393.00">
        <route edges="gneE3 -gneE1"/>
    </vehicle>
    <vehicle id="394" depart="394.00">
        <route edges="gneE3 -gneE2"/>
    </vehicle>
    <vehicle id="395" depart="395.00">
        <route edges="gneE3 -gneE1"/>
    </vehicle>
    <vehicle id="396" depart="396.00">
        <route edges="gneE3 -gneE1"/>
    </vehicle>
    <vehicle id="397" depart="397.00">
        <route edges="gneE3 -gneE2"/>
    </vehicle>
    <vehicle id="398" depart="398.00">
        <route edges="gneE1 -gneE2"/>
    </vehicle>
    <vehicle id="399" depart="399.00">
        <route edges="gneE3 -gneE1"/>
    </vehicle>
    <vehicle id="400" depart="400.00">
        <route edges="gneE2 -gneE1"/>
    </vehicle>
    <vehicle id="401" depart="401.00">
        <route edges="gneE3 -gneE1"/>
    </vehicle>
    <vehicle id="402" depart="402.00">
        <route edges="gneE2 -gneE1"/>
    </vehicle>
    <vehicle id="403" depart="403.00">
        <route edges="gneE2 -gneE1"/>
    </vehicle>
    <vehicle id="404" depart="404.00">
        <route edges="gneE2 -gneE1"/>
    </vehicle>
    <vehicle id="406" depart="406.00">
        <route edges="gneE3 -gneE2"/>
    </vehicle>
    <vehicle id="407" depart="407.00">
        <route edges="gneE2 -gneE1"/>
    </vehicle>
    <vehicle id="409" depart="409.00">
        <route edges="gneE1 -gneE2"/>
    </vehicle>
    <vehicle id="410" depart="410.00">
        <route edges="gneE2 -gneE1"/>
    </vehicle>
    <vehicle id="411" depart="411.00">
        <route edges="gneE1 -gneE2"/>
    </vehicle>
    <vehicle id="413" depart="413.00">
        <route edges="gneE2 -gneE1"/>
    </vehicle>
    <vehicle id="414" depart="414.00">
        <route edges="gneE2 -gneE1"/>
    </vehicle>
    <vehicle id="415" depart="415.00">
        <route edges="gneE3 -gneE2"/>
    </vehicle>
    <vehicle id="416" depart="416.00">
        <route edges="gneE1 -gneE2"/>
    </vehicle>
    <vehicle id="417" depart="417.00">
        <route edges="gneE2 -gneE1"/>
    </vehicle>
    <vehicle id="418" depart="418.00">
        <route edges="gneE3 -gneE1"/>
    </vehicle>
    <vehicle id="419" depart="419.00">
        <route edges="gneE1 -gneE2"/>
    </vehicle>
    <vehicle id="420" depart="420.00">
        <route edges="gneE3 -gneE1"/>
    </vehicle>
    <vehicle id="424" depart="424.00">
        <route edges="gneE3 -gneE1"/>
    </vehicle>
    <vehicle id="425" depart="425.00">
        <route edges="gneE1 -gneE2"/>
    </vehicle>
    <vehicle id="426" depart="426.00">
        <route edges="gneE3 -gneE1"/>
    </vehicle>
    <vehicle id="427" depart="427.00">
        <route edges="gneE3 -gneE2"/>
    </vehicle>
    <vehicle id="428" depart="428.00">
        <route edges="gneE2 -gneE1"/>
    </vehicle>
    <vehicle id="429" depart="429.00">
        <route edges="gneE1 -gneE2"/>
    </vehicle>
    <vehicle id="430" depart="430.00">
        <route edges="gneE2 -gneE1"/>
    </vehicle>
    <vehicle id="431" depart="431.00">
        <route edges="gneE3 -gneE2"/>
    </vehicle>
    <vehicle id="432" depart="432.00">
        <route edges="gneE3 -gneE1"/>
    </vehicle>
    <vehicle id="433" depart="433.00">
        <route edges="gneE3 -gneE1"/>
    </vehicle>
    <vehicle id="438" depart="438.00">
        <route edges="gneE2 -gneE1"/>
    </vehicle>
    <vehicle id="439" depart="439.00">
        <route edges="gneE2 -gneE1"/>
    </vehicle>
    <vehicle id="440" depart="440.00">
        <route edges="gneE3 -gneE2"/>
    </vehicle>
    <vehicle id="442" depart="442.00">
        <route edges="gneE3 -gneE1"/>
    </vehicle>
    <vehicle id="443" depart="443.00">
        <route edges="gneE2 -gneE1"/>
    </vehicle>
    <vehicle id="444" depart="444.00">
        <route edges="gneE3 -gneE1"/>
    </vehicle>
    <vehicle id="445" depart="445.00">
        <route edges="gneE2 -gneE1"/>
    </vehicle>
    <vehicle id="446" depart="446.00">
        <route edges="gneE3 -gneE1"/>
    </vehicle>
    <vehicle id="452" depart="452.00">
        <route edges="gneE1 -gneE2"/>
    </vehicle>
    <vehicle id="453" depart="453.00">