<?xml version="1.0" encoding="UTF-8"?>

<!-- generated on Sun May  6 21:10:18 2018 by SUMO duarouter Version 0.30.0
<?xml version="1.0" encoding="UTF-8"?>

<configuration xmlns:xsi="http://www.w3.org/2001/XMLSchema-instance" xsi:noNamespaceSchemaLocation="http://sumo.dlr.de/xsd/duarouterConfiguration.xsd">

    <input>
        <net-file value="simple_T/simple_T.net.xml"/>
        <route-files value="trips.trips.xml"/>
    </input>

    <output>
        <output-file value="simple_T/route/simple_T-0.8-7.rou.xml"/>
    </output>

    <processing>
        <ignore-errors value="true"/>
    </processing>

    <time>
        <begin value="0.0"/>
        <end value="1000.0"/>
    </time>

    <report>
        <no-warnings value="true"/>
        <no-step-log value="true"/>
    </report>

</configuration>
-->

<routes xmlns:xsi="http://www.w3.org/2001/XMLSchema-instance" xsi:noNamespaceSchemaLocation="http://sumo.dlr.de/xsd/routes_file.xsd">
    <vehicle id="1" depart="0.80">
        <route edges="gneE3 -gneE1"/>
    </vehicle>
    <vehicle id="3" depart="2.40">
        <route edges="gneE3 -gneE1"/>
    </vehicle>
    <vehicle id="4" depart="3.20">
        <route edges="gneE3 -gneE1"/>
    </vehicle>
    <vehicle id="5" depart="4.00">
        <route edges="gneE3 -gneE1"/>
    </vehicle>
    <vehicle id="6" depart="4.80">
        <route edges="gneE1 -gneE2"/>
    </vehicle>
    <vehicle id="7" depart="5.60">
        <route edges="gneE3 -gneE2"/>
    </vehicle>
    <vehicle id="8" depart="6.40">
        <route edges="gneE1 -gneE2"/>
    </vehicle>
    <vehicle id="10" depart="8.00">
        <route edges="gneE3 -gneE1"/>
    </vehicle>
    <vehicle id="11" depart="8.80">
        <route edges="gneE3 -gneE2"/>
    </vehicle>
    <vehicle id="12" depart="9.60">
        <route edges="gneE3 -gneE1"/>
    </vehicle>
    <vehicle id="13" depart="10.40">
        <route edges="gneE3 -gneE2"/>
    </vehicle>
    <vehicle id="14" depart="11.20">
        <route edges="gneE3 -gneE2"/>
    </vehicle>
    <vehicle id="15" depart="12.00">
        <route edges="gneE3 -gneE2"/>
    </vehicle>
    <vehicle id="16" depart="12.80">
        <route edges="gneE3 -gneE2"/>
    </vehicle>
    <vehicle id="17" depart="13.60">
        <route edges="gneE3 -gneE1"/>
    </vehicle>
    <vehicle id="18" depart="14.40">
        <route edges="gneE3 -gneE2"/>
    </vehicle>
    <vehicle id="19" depart="15.20">
        <route edges="gneE3 -gneE1"/>
    </vehicle>
    <vehicle id="20" depart="16.00">
        <route edges="gneE1 -gneE2"/>
    </vehicle>
    <vehicle id="21" depart="16.80">
        <route edges="gneE1 -gneE2"/>
    </vehicle>
    <vehicle id="23" depart="18.40">
        <route edges="gneE2 -gneE1"/>
    </vehicle>
    <vehicle id="24" depart="19.20">
        <route edges="gneE3 -gneE2"/>
    </vehicle>
    <vehicle id="25" depart="20.00">
        <route edges="gneE1 -gneE2"/>
    </vehicle>
    <vehicle id="26" depart="20.80">
        <route edges="gneE3 -gneE2"/>
    </vehicle>
    <vehicle id="27" depart="21.60">
        <route edges="gneE1 -gneE2"/>
    </vehicle>
    <vehicle id="28" depart="22.40">
        <route edges="gneE2 -gneE1"/>
    </vehicle>
    <vehicle id="29" depart="23.20">
        <route edges="gneE3 -gneE2"/>
    </vehicle>
    <vehicle id="30" depart="24.00">
        <route edges="gneE3 -gneE2"/>
    </vehicle>
    <vehicle id="31" depart="24.80">
        <route edges="gneE3 -gneE2"/>
    </vehicle>
    <vehicle id="32" depart="25.60">
        <route edges="gneE2 -gneE1"/>
    </vehicle>
    <vehicle id="33" depart="26.40">
        <route edges="gneE1 -gneE2"/>
    </vehicle>
    <vehicle id="34" depart="27.20">
        <route edges="gneE1 -gneE2"/>
    </vehicle>
    <vehicle id="35" depart="28.00">
        <route edges="gneE1 -gneE2"/>
    </vehicle>
    <vehicle id="36" depart="28.80">
        <route edges="gneE1 -gneE2"/>
    </vehicle>
    <vehicle id="37" depart="29.60">
        <route edges="gneE3 -gneE1"/>
    </vehicle>
    <vehicle id="38" depart="30.40">
        <route edges="gneE3 -gneE1"/>
    </vehicle>
    <vehicle id="41" depart="32.80">
        <route edges="gneE3 -gneE1"/>
    </vehicle>
    <vehicle id="44" depart="35.20">
        <route edges="gneE3 -gneE1"/>
    </vehicle>
    <vehicle id="46" depart="36.80">
        <route edges="gneE2 -gneE1"/>
    </vehicle>
    <vehicle id="47" depart="37.60">
        <route edges="gneE2 -gneE1"/>
    </vehicle>
    <vehicle id="49" depart="39.20">
        <route edges="gneE3 -gneE2"/>
    </vehicle>
    <vehicle id="50" depart="40.00">
        <route edges="gneE3 -gneE1"/>
    </vehicle>
    <vehicle id="52" depart="41.60">
        <route edges="gneE2 -gneE1"/>
    </vehicle>
    <vehicle id="54" depart="43.20">
        <route edges="gneE3 -gneE1"/>
    </vehicle>
    <vehicle id="55" depart="44.00">
        <route edges="gneE2 -gneE1"/>
    </vehicle>
    <vehicle id="56" depart="44.80">
        <route edges="gneE1 -gneE2"/>
    </vehicle>
    <vehicle id="57" depart="45.60">
        <route edges="gneE2 -gneE1"/>
    </vehicle>
    <vehicle id="58" depart="46.40">
        <route edges="gneE1 -gneE2"/>
    </vehicle>
    <vehicle id="59" depart="47.20">
        <route edges="gneE2 -gneE1"/>
    </vehicle>
    <vehicle id="60" depart="48.00">
        <route edges="gneE2 -gneE1"/>
    </vehicle>
    <vehicle id="61" depart="48.80">
        <route edges="gneE1 -gneE2"/>
    </vehicle>
    <vehicle id="62" depart="49.60">
        <route edges="gneE3 -gneE2"/>
    </vehicle>
    <vehicle id="63" depart="50.40">
        <route edges="gneE1 -gneE2"/>
    </vehicle>
    <vehicle id="64" depart="51.20">
        <route edges="gneE3 -gneE1"/>
    </vehicle>
    <vehicle id="65" depart="52.00">
        <route edges="gneE3 -gneE2"/>
    </vehicle>
    <vehicle id="67" depart="53.60">
        <route edges="gneE3 -gneE2"/>
    </vehicle>
    <vehicle id="69" depart="55.20">
        <route edges="gneE2 -gneE1"/>
    </vehicle>
    <vehicle id="71" depart="56.80">
        <route edges="gneE3 -gneE2"/>
    </vehicle>
    <vehicle id="72" depart="57.60">
        <route edges="gneE1 -gneE2"/>
    </vehicle>
    <vehicle id="74" depart="59.20">
        <route edges="gneE3 -gneE1"/>
    </vehicle>
    <vehicle id="78" depart="62.40">
        <route edges="gneE3 -gneE1"/>
    </vehicle>
    <vehicle id="80" depart="64.00">
        <route edges="gneE3 -gneE2"/>
    </vehicle>
    <vehicle id="81" depart="64.80">
        <route edges="gneE3 -gneE2"/>
    </vehicle>
    <vehicle id="83" depart="66.40">
        <route edges="gneE1 -gneE2"/>
    </vehicle>
    <vehicle id="84" depart="67.20">
        <route edges="gneE2 -gneE1"/>
    </vehicle>
    <vehicle id="85" depart="68.00">
        <route edges="gneE2 -gneE1"/>
    </vehicle>
    <vehicle id="86" depart="68.80">
        <route edges="gneE1 -gneE2"/>
    </vehicle>
    <vehicle id="87" depart="69.60">
        <route edges="gneE1 -gneE2"/>
    </vehicle>
    <vehicle id="88" depart="70.40">
        <route edges="gneE1 -gneE2"/>
    </vehicle>
    <vehicle id="94" depart="75.20">
        <route edges="gneE2 -gneE1"/>
    </vehicle>
    <vehicle id="95" depart="76.00">
        <route edges="gneE3 -gneE1"/>
    </vehicle>
    <vehicle id="96" depart="76.80">
        <route edges="gneE3 -gneE1"/>
    </vehicle>
    <vehicle id="97" depart="77.60">
        <route edges="gneE3 -gneE2"/>
    </vehicle>
    <vehicle id="99" depart="79.20">
        <route edges="gneE3 -gneE1"/>
    </vehicle>
    <vehicle id="102" depart="81.60">
        <route edges="gneE3 -gneE1"/>
    </vehicle>
    <vehicle id="103" depart="82.40">
        <route edges="gneE3 -gneE1"/>
    </vehicle>
    <vehicle id="104" depart="83.20">
        <route edges="gneE3 -gneE2"/>
    </vehicle>
    <vehicle id="106" depart="84.80">
        <route edges="gneE2 -gneE1"/>
    </vehicle>
    <vehicle id="107" depart="85.60">
        <route edges="gneE1 -gneE2"/>
    </vehicle>
    <vehicle id="109" depart="87.20">
        <route edges="gneE2 -gneE1"/>
    </vehicle>
    <vehicle id="110" depart="88.00">
        <route edges="gneE3 -gneE2"/>
    </vehicle>
    <vehicle id="111" depart="88.80">
        <route edges="gneE3 -gneE2"/>
    </vehicle>
    <vehicle id="112" depart="89.60">
        <route edges="gneE2 -gneE1"/>
    </vehicle>
    <vehicle id="113" depart="90.40">
        <route edges="gneE2 -gneE1"/>
    </vehicle>
    <vehicle id="114" depart="91.20">
        <route edges="gneE3 -gneE2"/>
    </vehicle>
    <vehicle id="115" depart="92.00">
        <route edges="gneE3 -gneE1"/>
    </vehicle>
    <vehicle id="116" depart="92.80">
        <route edges="gneE3 -gneE1"/>
    </vehicle>
    <vehicle id="118" depart="94.40">
        <route edges="gneE3 -gneE1"/>
    </vehicle>
    <vehicle id="119" depart="95.20">
        <route edges="gneE3 -gneE1"/>
    </vehicle>
    <vehicle id="120" depart="96.00">
        <route edges="gneE2 -gneE1"/>
    </vehicle>
    <vehicle id="123" depart="98.40">
        <route edges="gneE3 -gneE1"/>
    </vehicle>
    <vehicle id="124" depart="99.20">
        <route edges="gneE2 -gneE1"/>
    </vehicle>
    <vehicle id="125" depart="100.00">
        <route edges="gneE3 -gneE1"/>
    </vehicle>
    <vehicle id="126" depart="100.80">
        <route edges="gneE2 -gneE1"/>
    </vehicle>
    <vehicle id="127" depart="101.60">
        <route edges="gneE3 -gneE1"/>
    </vehicle>
    <vehicle id="128" depart="102.40">
        <route edges="gneE3 -gneE2"/>
    </vehicle>
    <vehicle id="129" depart="103.20">
        <route edges="gneE1 -gneE2"/>
    </vehicle>
    <vehicle id="131" depart="104.80">
        <route edges="gneE3 -gneE1"/>
    </vehicle>
    <vehicle id="133" depart="106.40">
        <route edges="gneE1 -gneE2"/>
    </vehicle>
    <vehicle id="134" depart="107.20">
        <route edges="gneE2 -gneE1"/>
    </vehicle>
    <vehicle id="135" depart="108.00">
        <route edges="gneE3 -gneE1"/>
    </vehicle>
    <vehicle id="136" depart="108.80">
        <route edges="gneE2 -gneE1"/>
    </vehicle>
    <vehicle id="137" depart="109.60">
        <route edges="gneE2 -gneE1"/>
    </vehicle>
    <vehicle id="139" depart="111.20">
        <route edges="gneE1 -gneE2"/>
    </vehicle>
    <vehicle id="140" depart="112.00">
        <route edges="gneE2 -gneE1"/>
    </vehicle>
    <vehicle id="141" depart="112.80">
        <route edges="gneE3 -gneE2"/>
    </vehicle>
    <vehicle id="142" depart="113.60">
        <route edges="gneE2 -gneE1"/>
    </vehicle>
    <vehicle id="144" depart="115.20">
        <route edges="gneE3 -gneE2"/>
    </vehicle>
    <vehicle id="145" depart="116.00">
        <route edges="gneE3 -gneE1"/>
    </vehicle>
    <vehicle id="148" depart="118.40">
        <route edges="gneE3 -gneE1"/>
    </vehicle>
    <vehicle id="149" depart="119.20">
        <route edges="gneE3 -gneE1"/>
    </vehicle>
    <vehicle id="150" depart="120.00">
        <route edges="gneE3 -gneE1"/>
    </vehicle>
    <vehicle id="152" depart="121.60">
        <route edges="gneE3 -gneE2"/>
    </vehicle>
    <vehicle id="153" depart="122.40">
        <route edges="gneE2 -gneE1"/>
    </vehicle>
    <vehicle id="154" depart="123.20">
        <route edges="gneE3 -gneE1"/>
    </vehicle>
    <vehicle id="155" depart="124.00">
        <route edges="gneE3 -gneE2"/>
    </vehicle>
    <vehicle id="157" depart="125.60">
        <route edges="gneE3 -gneE2"/>
    </vehicle>
    <vehicle id="158" depart="126.40">
        <route edges="gneE2 -gneE1"/>
    </vehicle>
    <vehicle id="159" depart="127.20">
        <route edges="gneE3 -gneE1"/>
    </vehicle>
    <vehicle id="161" depart="128.80">
        <route edges="gneE3 -gneE2"/>
    </vehicle>
    <vehicle id="162" depart="129.60">
        <route edges="gneE3 -gneE1"/>
    </vehicle>
    <vehicle id="163" depart="130.40">
        <route edges="gneE2 -gneE1"/>
    </vehicle>
    <vehicle id="165" depart="132.00">
        <route edges="gneE2 -gneE1"/>
    </vehicle>
    <vehicle id="166" depart="132.80">
        <route edges="gneE2 -gneE1"/>
    </vehicle>
    <vehicle id="169" depart="135.20">
        <route edges="gneE1 -gneE2"/>
    </vehicle>
    <vehicle id="170" depart="136.00">
        <route edges="gneE3 -gneE2"/>
    </vehicle>
    <vehicle id="171" depart="136.80">
        <route edges="gneE3 -gneE2"/>
    </vehicle>
    <vehicle id="173" depart="138.40">
        <route edges="gneE1 -gneE2"/>
    </vehicle>
    <vehicle id="174" depart="139.20">
        <route edges="gneE1 -gneE2"/>
    </vehicle>
    <vehicle id="175" depart="140.00">
        <route edges="gneE2 -gneE1"/>
    </vehicle>
    <vehicle id="176" depart="140.80">
        <route edges="gneE2 -gneE1"/>
    </vehicle>
    <vehicle id="178" depart="142.40">
        <route edges="gneE3 -gneE1"/>
    </vehicle>
    <vehicle id="179" depart="143.20">
        <route edges="gneE2 -gneE1"/>
    </vehicle>
    <vehicle id="182" depart="145.60">
        <route edges="gneE2 -gneE1"/>
    </vehicle>
    <vehicle id="183" depart="146.40">
        <route edges="gneE3 -gneE1"/>
    </vehicle>
    <vehicle id="184" depart="147.20">
        <route edges="gneE3 -gneE1"/>
    </vehicle>
    <vehicle id="187" depart="149.60">
        <route edges="gneE3 -gneE2"/>
    </vehicle>
    <vehicle id="188" depart="150.40">
        <route edges="gneE3 -gneE2"/>
    </vehicle>
    <vehicle id="189" depart="151.20">
        <route edges="gneE2 -gneE1"/>
    </vehicle>
    <vehicle id="193" depart="154.40">
        <route edges="gneE2 -gneE1"/>
    </vehicle>
    <vehicle id="194" depart="155.20">
        <route edges="gneE2 -gneE1"/>
    </vehicle>
    <vehicle id="196" depart="156.80">
        <route edges="gneE2 -gneE1"/>
    </vehicle>
    <vehicle id="197" depart="157.60">
        <route edges="gneE3 -gneE1"/>
    </vehicle>
    <vehicle id="198" depart="158.40">
        <route edges="gneE3 -gneE1"/>
    </vehicle>
    <vehicle id="199" depart="159.20">
        <route edges="gneE3 -gneE2"/>
    </vehicle>
    <vehicle id="200" depart="160.00">
        <route edges="gneE3 -gneE2"/>
    </vehicle>
    <vehicle id="202" depart="161.60">
        <route edges="gneE3 -gneE1"/>
    </vehicle>
    <vehicle id="203" depart="162.40">
        <route edges="gneE3 -gneE2"/>
    </vehicle>
    <vehicle id="206" depart="164.80">
        <route edges="gneE2 -gneE1"/>
    </vehicle>
    <vehicle id="207" depart="165.60">
        <route edges="gneE2 -gneE1"/>
    </vehicle>
    <vehicle id="208" depart="166.40">
        <route edges="gneE3 -gneE2"/>
    </vehicle>
    <vehicle id="209" depart="167.20">
        <route edges="gneE2 -gneE1"/>
    </vehicle>
    <vehicle id="210" depart="168.00">
        <route edges="gneE3 -gneE2"/>
    </vehicle>
    <vehicle id="211" depart="168.80">
        <route edges="gneE3 -gneE1"/>
    </vehicle>
    <vehicle id="212" depart="169.60">
        <route edges="gneE3 -gneE2"/>
    </vehicle>
    <vehicle id="213" depart="170.40">
        <route edges="gneE3 -gneE1"/>
    </vehicle>
    <vehicle id="215" depart="172.00">
        <route edges="gneE3 -gneE1"/>
    </vehicle>
    <vehicle id="216" depart="172.80">
        <route edges="gneE3 -gneE2"/>
    </vehicle>
    <vehicle id="217" depart="173.60">
        <route edges="gneE3 -gneE2"/>
    </vehicle>
    <vehicle id="218" depart="174.40">
        <route edges="gneE3 -gneE1"/>
    </vehicle>
    <vehicle id="219" depart="175.20">
        <route edges="gneE3 -gneE2"/>
    </vehicle>
    <vehicle id="220" depart="176.00">
        <route edges="gneE2 -gneE1"/>
    </vehicle>
    <vehicle id="221" depart="176.80">
        <route edges="gneE1 -gneE2"/>
    </vehicle>
    <vehicle id="223" depart="178.40">
        <route edges="gneE3 -gneE2"/>
    </vehicle>
    <vehicle id="225" depart="180.00">
        <route edges="gneE3 -gneE1"/>
    </vehicle>
    <vehicle id="226" depart="180.80">
        <route edges="gneE2 -gneE1"/>
    </vehicle>
    <vehicle id="228" depart="182.40">
        <route edges="gneE1 -gneE2"/>
    </vehicle>
    <vehicle id="230" depart="184.00">
        <route edges="gneE1 -gneE2"/>
    </vehicle>
    <vehicle id="231" depart="184.80">
        <route edges="gneE1 -gneE2"/>
    </vehicle>
    <vehicle id="232" depart="185.60">
        <route edges="gneE1 -gneE2"/>
    </vehicle>
    <vehicle id="235" depart="188.00">
        <route edges="gneE3 -gneE2"/>
    </vehicle>
    <vehicle id="236" depart="188.80">
        <route edges="gneE1 -gneE2"/>
    </vehicle>
    <vehicle id="238" depart="190.40">
        <route edges="gneE1 -gneE2"/>
    </vehicle>
    <vehicle id="239" depart="191.20">
        <route edges="gneE2 -gneE1"/>
    </vehicle>
    <vehicle id="240" depart="192.00">
        <route edges="gneE1 -gneE2"/>
    </vehicle>
    <vehicle id="241" depart="192.80">
        <route edges="gneE3 -gneE2"/>
    </vehicle>
    <vehicle id="243" depart="194.40">
        <route edges="gneE3 -gneE2"/>
    </vehicle>
    <vehicle id="248" depart="198.40">
        <route edges="gneE3 -gneE1"/>
    </vehicle>
    <vehicle id="252" depart="201.60">
        <route edges="gneE3 -gneE1"/>
    </vehicle>
    <vehicle id="253" depart="202.40">
        <route edges="gneE3 -gneE1"/>
    </vehicle>
    <vehicle id="254" depart="203.20">
        <route edges="gneE3 -gneE1"/>
    </vehicle>
    <vehicle id="255" depart="204.00">
        <route edges="gneE3 -gneE2"/>
    </vehicle>
    <vehicle id="256" depart="204.80">
        <route edges="gneE3 -gneE2"/>
    </vehicle>
    <vehicle id="258" depart="206.40">
        <route edges="gneE2 -gneE1"/>
    </vehicle>
    <vehicle id="259" depart="207.20">
        <route edges="gneE1 -gneE2"/>
    </vehicle>
    <vehicle id="260" depart="208.00">
        <route edges="gneE1 -gneE2"/>
    </vehicle>
    <vehicle id="261" depart="208.80">
        <route edges="gneE2 -gneE1"/>
    </vehicle>
    <vehicle id="264" depart="211.20">
        <route edges="gneE3 -gneE2"/>
    </vehicle>
    <vehicle id="265" depart="212.00">
        <route edges="gneE1 -gneE2"/>
    </vehicle>
    <vehicle id="267" depart="213.60">
        <route edges="gneE2 -gneE1"/>
    </vehicle>
    <vehicle id="268" depart="214.40">
        <route edges="gneE3 -gneE2"/>
    </vehicle>
    <vehicle id="269" depart="215.20">
        <route edges="gneE3 -gneE1"/>
    </vehicle>
    <vehicle id="270" depart="216.00">
        <route edges="gneE3 -gneE1"/>
    </vehicle>
    <vehicle id="271" depart="216.80">
        <route edges="gneE3 -gneE1"/>
    </vehicle>
    <vehicle id="272" depart="217.60">
        <route edges="gneE3 -gneE2"/>
    </vehicle>
    <vehicle id="274" depart="219.20">
        <route edges="gneE2 -gneE1"/>
    </vehicle>
    <vehicle id="275" depart="220.00">
        <route edges="gneE1 -gneE2"/>
    </vehicle>
    <vehicle id="276" depart="220.80">
        <route edges="gneE2 -gneE1"/>
    </vehicle>
    <vehicle id="277" depart="221.60">
        <route edges="gneE3 -gneE1"/>
    </vehicle>
    <vehicle id="278" depart="222.40">
        <route edges="gneE2 -gneE1"/>
    </vehicle>
    <vehicle id="279" depart="223.20">
        <route edges="gneE3 -gneE1"/>
    </vehicle>
    <vehicle id="282" depart="225.60">
        <route edges="gneE2 -gneE1"/>
    </vehicle>
    <vehicle id="283" depart="226.40">
        <route edges="gneE3 -gneE1"/>
    </vehicle>
    <vehicle id="285" depart="228.00">
        <route edges="gneE1 -gneE2"/>
    </vehicle>
    <vehicle id="286" depart="228.80">
        <route edges="gneE1 -gneE2"/>
    </vehicle>
    <vehicle id="287" depart="229.60">
        <route edges="gneE2 -gneE1"/>
    </vehicle>
    <vehicle id="288" depart="230.40">
        <route edges="gneE1 -gneE2"/>
    </vehicle>
    <vehicle id="290" depart="232.00">
        <route edges="gneE3 -gneE2"/>
    </vehicle>
    <vehicle id="291" depart="232.80">
        <route edges="gneE1 -gneE2"/>
    </vehicle>
    <vehicle id="292" depart="233.60">
        <route edges="gneE3 -gneE2"/>
    </vehicle>
    <vehicle id="293" depart="234.40">
        <route edges="gneE3 -gneE2"/>
    </vehicle>
    <vehicle id="297" depart="237.60">
        <route edges="gneE3 -gneE1"/>
    </vehicle>
    <vehicle id="301" depart="240.80">
        <route edges="gneE1 -gneE2"/>
    </vehicle>
    <vehicle id="302" depart="241.60">
        <route edges="gneE3 -gneE1"/>
    </vehicle>
    <vehicle id="304" depart="243.20">
        <route edges="gneE3 -gneE1"/>
    </vehicle>
    <vehicle id="305" depart="244.00">
        <route edges="gneE1 -gneE2"/>
    </vehicle>
    <vehicle id="306" depart="244.80">
        <route edges="gneE1 -gneE2"/>
    </vehicle>
    <vehicle id="308" depart="246.40">
        <route edges="gneE1 -gneE2"/>
    </vehicle>
    <vehicle id="309" depart="247.20">
        <route edges="gneE1 -gneE2"/>
    </vehicle>
    <vehicle id="310" depart="248.00">
        <route edges="gneE3 -gneE1"/>
    </vehicle>
    <vehicle id="311" depart="248.80">
        <route edges="gneE3 -gneE1"/>
    </vehicle>
    <vehicle id="312" depart="249.60">
        <route edges="gneE1 -gneE2"/>
    </vehicle>
    <vehicle id="313" depart="250.40">
        <route edges="gneE3 -gneE1"/>
    </vehicle>
    <vehicle id="315" depart="252.00">
        <route edges="gneE3 -gneE2"/>
    </vehicle>
    <vehicle id="317" depart="253.60">
        <route edges="gneE1 -gneE2"/>
    </vehicle>
    <vehicle id="318" depart="254.40">
        <route edges="gneE3 -gneE1"/>
    </vehicle>
    <vehicle id="320" depart="256.00">
        <route edges="gneE2 -gneE1"/>
    </vehicle>
    <vehicle id="321" depart="256.80">
        <route edges="gneE3 -gneE2"/>
    </vehicle>
    <vehicle id="322" depart="257.60">
        <route edges="gneE1 -gneE2"/>
    </vehicle>
    <vehicle id="325" depart="260.00">
        <route edges="gneE3 -gneE1"/>
    </vehicle>
    <vehicle id="326" depart="260.80">
        <route edges="gneE3 -gneE2"/>
    </vehicle>
    <vehicle id="327" depart="261.60">
        <route edges="gneE1 -gneE2"/>
    </vehicle>
    <vehicle id="329" depart="263.20">
        <route edges="gneE1 -gneE2"/>
    </vehicle>
    <vehicle id="331" depart="264.80">
        <route edges="gneE1 -gneE2"/>
    </vehicle>
    <vehicle id="332" depart="265.60">
        <route edges="gneE1 -gneE2"/>
    </vehicle>
    <vehicle id="333" depart="266.40">
        <route edges="gneE3 -gneE2"/>
    </vehicle>
    <vehicle id="335" depart="268.00">
        <route edges="gneE3 -gneE2"/>
    </vehicle>
    <vehicle id="337" depart="269.60">
        <route edges="gneE1 -gneE2"/>
    </vehicle>
    <vehicle id="339" depart="271.20">
        <route edges="gneE2 -gneE1"/>
    </vehicle>
    <vehicle id="344" depart="275.20">
        <route edges="gneE3 -gneE2"/>
    </vehicle>
    <vehicle id="345" depart="276.00">
        <route edges="gneE3 -gneE2"/>
    </vehicle>
    <vehicle id="346" depart="276.80">
        <route edges="gneE3 -gneE2"/>
    </vehicle>
    <vehicle id="347" depart="277.60">
        <route edges="gneE3 -gneE1"/>
    </vehicle>
    <vehicle id="349" depart="279.20">
        <route edges="gneE2 -gneE1"/>
    </vehicle>
    <vehicle id="350" depart="280.00">
        <route edges="gneE2 -gneE1"/>
    </vehicle>
    <vehicle id="354" depart="283.20">
        <route edges="gneE3 -gneE1"/>
    </vehicle>
    <vehicle id="355" depart="284.00">
        <route edges="gneE3 -gneE2"/>
    </vehicle>
    <vehicle id="356" depart="284.80">
        <route edges="gneE1 -gneE2"/>
    </vehicle>
    <vehicle id="358" depart="286.40">
        <route edges="gneE1 -gneE2"/>
    </vehicle>
    <vehicle id="361" depart="288.80">
        <route edges="gneE3 -gneE1"/>
    </vehicle>
    <vehicle id="366" depart="292.80">
        <route edges="gneE1 -gneE2"/>
    </vehicle>
    <vehicle id="367" depart="293.60">
        <route edges="gneE3 -gneE1"/>
    </vehicle>
    <vehicle id="368" depart="294.40">
        <route edges="gneE1 -gneE2"/>
    </vehicle>
    <vehicle id="369" depart="295.20">
        <route edges="gneE3 -gneE2"/>
    </vehicle>
    <vehicle id="371" depart="296.80">
        <route edges="gneE3 -gneE2"/>
    </vehicle>
    <vehicle id="372" depart="297.60">
        <route edges="gneE2 -gneE1"/>
    </vehicle>
    <vehicle id="373" depart="298.40">
        <route edges="gneE2 -gneE1"/>
    </vehicle>
    <vehicle id="375" depart="300.00">
        <route edges="gneE3 -gneE2"/>
    </vehicle>
    <vehicle id="376" depart="300.80">
        <route edges="gneE2 -gneE1"/>
    </vehicle>
    <vehicle id="377" depart="301.60">
        <route edges="gneE2 -gneE1"/>
    </vehicle>
    <vehicle id="382" depart="305.60">
        <route edges="gneE1 -gneE2"/>
    </vehicle>
    <vehicle id="383" depart="306.40">
        <route edges="gneE2 -gneE1"/>
    </vehicle>
    <vehicle id="386" depart="308.80">
        <route edges="gneE3 -gneE1"/>
    </vehicle>
    <vehicle id="387" depart="309.60">
        <route edges="gneE1 -gneE2"/>
    </vehicle>
    <vehicle id="388" depart="310.40">
        <route edges="gneE3 -gneE1"/>
    </vehicle>
    <vehicle id="389" depart="311.20">
        <route edges="gneE3 -gneE2"/>
    </vehicle>
    <vehicle id="390" depart="312.00">
        <route edges="gneE3 -gneE2"/>
    </vehicle>
    <vehicle id="392" depart="313.60">
        <route edges="gneE1 -gneE2"/>
    </vehicle>
    <vehicle id="393" depart="314.40">
        <route edges="gneE3 -gneE2"/>
    </vehicle>
    <vehicle id="394" depart="315.20">
        <route edges="gneE3 -gneE2"/>
    </vehicle>
    <vehicle id="398" depart="318.40">
        <route edges="gneE3 -gneE2"/>
    </vehicle>
    <vehicle id="399" depart="319.20">
        <route edges="gneE3 -gneE2"/>
    </vehicle>
    <vehicle id="400" depart="320.00">
        <route edges="gneE1 -gneE2"/>
    </vehicle>
    <vehicle id="401" depart="320.80">
        <route edges="gneE3 -gneE2"/>
    </vehicle>
    <vehicle id="403" depart="322.40">
        <route edges="gneE3 -gneE2"/>
    </vehicle>
    <vehicle id="404" depart="323.20">
        <route edges="gneE3 -gneE1"/>
    </vehicle>
    <vehicle id="406" depart="324.80">
        <route edges="gneE1 -gneE2"/>
    </vehicle>
    <vehicle id="407" depart="325.60">
        <route edges="gneE3 -gneE2"/>
    </vehicle>
    <vehicle id="408" depart="326.40">
        <route edges="gneE1 -gneE2"/>
    </vehicle>
    <vehicle id="412" depart="329.60">
        <route edges="gneE2 -gneE1"/>
    </vehicle>
    <vehicle id="413" depart="330.40">
        <route edges="gneE3 -gneE1"/>
    </vehicle>
    <vehicle id="414" depart="331.20">
        <route edges="gneE3 -gneE1"/>
    </vehicle>
    <vehicle id="417" depart="333.60">
        <route edges="gneE1 -gneE2"/>
    </vehicle>
    <vehicle id="419" depart="335.20">
        <route edges="gneE3 -gneE1"/>
    </vehicle>
    <vehicle id="420" depart="336.00">
        <route edges="gneE3 -gneE1"/>
    </vehicle>
    <vehicle id="421" depart="336.80">
        <route edges="gneE2 -gneE1"/>
    </vehicle>
    <vehicle id="423" depart="338.40">
        <route edges="gneE2 -gneE1"/>
    </vehicle>
    <vehicle id="424" depart="339.20">
        <route edges="gneE3 -gneE2"/>
    </vehicle>
    <vehicle id="425" depart="340.00">
        <route edges="gneE3 -gneE1"/>
    </vehicle>
    <vehicle id="426" depart="340.80">
        <route edges="gneE1 -gneE2"/>
    </vehicle>
    <vehicle id="427" depart="341.60">
        <route edges="gneE2 -gneE1"/>
    </vehicle>
    <vehicle id="428" depart="342.40">
        <route edges="gneE3 -gneE1"/>
    </vehicle>
    <vehicle id="429" depart="343.20">
        <route edges="gneE3 -gneE2"/>
    </vehicle>
    <vehicle id="430" depart="344.00">
        <route edges="gneE2 -gneE1"/>
    </vehicle>
    <vehicle id="431" depart="344.80">
        <route edges="gneE3 -gneE1"/>
    </vehicle>
    <vehicle id="432" depart="345.60">
        <route edges="gneE3 -gneE2"/>
    </vehicle>
    <vehicle id="433" depart="346.40">
        <route edges="gneE3 -gneE2"/>
    </vehicle>
    <vehicle id="436" depart="348.80">
        <route edges="gneE2 -gneE1"/>
    </vehicle>
    <vehicle id="437" depart="349.60">
        <route edges="gneE3 -gneE2"/>
    </vehicle>
    <vehicle id="438" depart="350.40">
        <route edges="gneE2 -gneE1"/>
    </vehicle>
    <vehicle id="439" depart="351.20">
        <route edges="gneE2 -gneE1"/>
    </vehicle>
    <vehicle id="440" depart="352.00">
        <route edges="gneE2 -gneE1"/>
    </vehicle>
    <vehicle id="441" depart="352.80">
        <route edges="gneE3 -gneE2"/>
    </vehicle>
    <vehicle id="444" depart="355.20">
        <route edges="gneE3 -gneE1"/>
    </vehicle>
    <vehicle id="445" depart="356.00">
        <route edges="gneE3 -gneE1"/>
    </vehicle>
    <vehicle id="447" depart="357.60">
        <route edges="gneE2 -gneE1"/>
    </vehicle>
    <vehicle id="448" depart="358.40">
        <route edges="gneE3 -gneE1"/>
    </vehicle>
    <vehicle id="449" depart="359.20">
        <route edges="gneE3 -gneE1"/>
    </vehicle>
    <vehicle id="450" depart="360.00">
        <route edges="gneE2 -gneE1"/>
    </vehicle>
    <vehicle id="451" depart="360.80">
        <route edges="gneE1 -gneE2"/>
    </vehicle>
    <vehicle id="452" depart="361.60">
        <route edges="gneE3 -gneE1"/>
    </vehicle>
    <vehicle id="453" depart="362.40">
        <route edges="gneE3 -gneE2"/>
    </vehicle>
    <vehicle id="454" depart="363.20">
        <route edges="gneE1 -gneE2"/>
    </vehicle>
    <vehicle id="456" depart="364.80">
        <route edges="gneE2 -gneE1"/>
    </vehicle>
    <vehicle id="458" depart="366.40">
        <route edges="gneE1 -gneE2"/>
    </vehicle>
    <vehicle id="460" depart="368.00">
        <route edges="gneE3 -gneE2"/>
    </vehicle>
    <vehicle id="461" depart="368.80">
        <route edges="gneE3 -gneE1"/>
    </vehicle>
    <vehicle id="462" depart="369.60">
        <route edges="gneE1 -gneE2"/>
    </vehicle>
    <vehicle id="464" depart="371.20">