<?xml version="1.0" encoding="UTF-8"?>

<!-- generated on Sun May  6 19:48:26 2018 by SUMO duarouter Version 0.30.0
<?xml version="1.0" encoding="UTF-8"?>

<configuration xmlns:xsi="http://www.w3.org/2001/XMLSchema-instance" xsi:noNamespaceSchemaLocation="http://sumo.dlr.de/xsd/duarouterConfiguration.xsd">

    <input>
        <net-file value="simple_T/simple_T.net.xml"/>
        <route-files value="trips.trips.xml"/>
    </input>

    <output>
        <output-file value="simple_T/route/simple_T-2.0-5.rou.xml"/>
    </output>

    <processing>
        <ignore-errors value="true"/>
    </processing>

    <time>
        <begin value="0.0"/>
        <end value="1000.0"/>
    </time>

    <report>
        <no-warnings value="true"/>
        <no-step-log value="true"/>
    </report>

</configuration>
-->

<routes xmlns:xsi="http://www.w3.org/2001/XMLSchema-instance" xsi:noNamespaceSchemaLocation="http://sumo.dlr.de/xsd/routes_file.xsd">
    <vehicle id="0" depart="0.00">
        <route edges="gneE2 -gneE1"/>
    </vehicle>
    <vehicle id="1" depart="2.00">
        <route edges="gneE3 -gneE2"/>
    </vehicle>
    <vehicle id="2" depart="4.00">
        <route edges="gneE1 -gneE2"/>
    </vehicle>
    <vehicle id="3" depart="6.00">
        <route edges="gneE2 -gneE1"/>
    </vehicle>
    <vehicle id="4" depart="8.00">
        <route edges="gneE1 -gneE2"/>
    </vehicle>
    <vehicle id="5" depart="10.00">
        <route edges="gneE2 -gneE1"/>
    </vehicle>
    <vehicle id="6" depart="12.00">
        <route edges="gneE1 -gneE2"/>
    </vehicle>
    <vehicle id="7" depart="14.00">
        <route edges="gneE2 -gneE1"/>
    </vehicle>
    <vehicle id="8" depart="16.00">
        <route edges="gneE1 -gneE2"/>
    </vehicle>
    <vehicle id="10" depart="20.00">
        <route edges="gneE1 -gneE2"/>
    </vehicle>
    <vehicle id="12" depart="24.00">
        <route edges="gneE2 -gneE1"/>
    </vehicle>
    <vehicle id="13" depart="26.00">
        <route edges="gneE1 -gneE2"/>
    </vehicle>
    <vehicle id="14" depart="28.00">
        <route edges="gneE1 -gneE2"/>
    </vehicle>
    <vehicle id="15" depart="30.00">
        <route edges="gneE2 -gneE1"/>
    </vehicle>
    <vehicle id="16" depart="32.00">
        <route edges="gneE3 -gneE2"/>
    </vehicle>
    <vehicle id="17" depart="34.00">
        <route edges="gneE1 -gneE2"/>
    </vehicle>
    <vehicle id="18" depart="36.00">
        <route edges="gneE2 -gneE1"/>
    </vehicle>
    <vehicle id="19" depart="38.00">
        <route edges="gneE2 -gneE1"/>
    </vehicle>
    <vehicle id="20" depart="40.00">
        <route edges="gneE1 -gneE2"/>
    </vehicle>
    <vehicle id="25" depart="50.00">
        <route edges="gneE1 -gneE2"/>
    </vehicle>
    <vehicle id="26" depart="52.00">
        <route edges="gneE3 -gneE1"/>
    </vehicle>
    <vehicle id="27" depart="54.00">
        <route edges="gneE3 -gneE1"/>
    </vehicle>
    <vehicle id="28" depart="56.00">
        <route edges="gneE3 -gneE2"/>
    </vehicle>
    <vehicle id="29" depart="58.00">
        <route edges="gneE1 -gneE2"/>
    </vehicle>
    <vehicle id="31" depart="62.00">
        <route edges="gneE1 -gneE2"/>
    </vehicle>
    <vehicle id="32" depart="64.00">
        <route edges="gneE1 -gneE2"/>
    </vehicle>
    <vehicle id="34" depart="68.00">
        <route edges="gneE3 -gneE1"/>
    </vehicle>
    <vehicle id="35" depart="70.00">
        <route edges="gneE1 -gneE2"/>
    </vehicle>
    <vehicle id="36" depart="72.00">
        <route edges="gneE2 -gneE1"/>
    </vehicle>
    <vehicle id="37" depart="74.00">
        <route edges="gneE3 -gneE2"/>
    </vehicle>
    <vehicle id="38" depart="76.00">
        <route edges="gneE3 -gneE2"/>
    </vehicle>
    <vehicle id="44" depart="88.00">
        <route edges="gneE1 -gneE2"/>
    </vehicle>
    <vehicle id="45" depart="90.00">
        <route edges="gneE3 -gneE2"/>
    </vehicle>
    <vehicle id="46" depart="92.00">
        <route edges="gneE3 -gneE1"/>
    </vehicle>
    <vehicle id="48" depart="96.00">
        <route edges="gneE2 -gneE1"/>
    </vehicle>
    <vehicle id="50" depart="100.00">
        <route edges="gneE3 -gneE2"/>
    </vehicle>
    <vehicle id="52" depart="104.00">
        <route edges="gneE3 -gneE2"/>
    </vehicle>
    <vehicle id="53" depart="106.00">
        <route edges="gneE2 -gneE1"/>
    </vehicle>
    <vehicle id="54" depart="108.00">
        <route edges="gneE1 -gneE2"/>
    </vehicle>
    <vehicle id="58" depart="116.00">
        <route edges="gneE2 -gneE1"/>
    </vehicle>
    <vehicle id="59" depart="118.00">
        <route edges="gneE3 -gneE2"/>
    </vehicle>
    <vehicle id="61" depart="122.00">
        <route edges="gneE3 -gneE1"/>
    </vehicle>
    <vehicle id="64" depart="128.00">
        <route edges="gneE1 -gneE2"/>
    </vehicle>
    <vehicle id="66" depart="132.00">
        <route edges="gneE3 -gneE1"/>
    </vehicle>
    <vehicle id="67" depart="134.00">
        <route edges="gneE3 -gneE2"/>
    </vehicle>
    <vehicle id="68" depart="136.00">
        <route edges="gneE1 -gneE2"/>
    </vehicle>
    <vehicle id="73" depart="146.00">
        <route edges="gneE2 -gneE1"/>
    </vehicle>
    <vehicle id="74" depart="148.00">
        <route edges="gneE3 -gneE1"/>
    </vehicle>
    <vehicle id="75" depart="150.00">
        <route edges="gneE3 -gneE1"/>
    </vehicle>
    <vehicle id="76" depart="152.00">
        <route edges="gneE3 -gneE1"/>
    </vehicle>
    <vehicle id="78" depart="156.00">
        <route edges="gneE3 -gneE1"/>
    </vehicle>
    <vehicle id="79" depart="158.00">
        <route edges="gneE1 -gneE2"/>
    </vehicle>
    <vehicle id="80" depart="160.00">
        <route edges="gneE3 -gneE1"/>
    </vehicle>
    <vehicle id="81" depart="162.00">
        <route edges="gneE3 -gneE2"/>
    </vehicle>
    <vehicle id="82" depart="164.00">
        <route edges="gneE3 -gneE1"/>
    </vehicle>
    <vehicle id="83" depart="166.00">
        <route edges="gneE2 -gneE1"/>
    </vehicle>
    <vehicle id="84" depart="168.00">
        <route edges="gneE3 -gneE2"/>
    </vehicle>
    <vehicle id="89" depart="178.00">
        <route edges="gneE2 -gneE1"/>
    </vehicle>
    <vehicle id="91" depart="182.00">
        <route edges="gneE3 -gneE2"/>
    </vehicle>
    <vehicle id="92" depart="184.00">
        <route edges="gneE3 -gneE1"/>
    </vehicle>
    <vehicle id="93" depart="186.00">
        <route edges="gneE1 -gneE2"/>
    </vehicle>
    <vehicle id="96" depart="192.00">
        <route edges="gneE3 -gneE1"/>
    </vehicle>
    <vehicle id="97" depart="194.00">
        <route edges="gneE3 -gneE2"/>
    </vehicle>
    <vehicle id="98" depart="196.00">
        <route edges="gneE3 -gneE1"/>
    </vehicle>
    <vehicle id="99" depart="198.00">
        <route edges="gneE1 -gneE2"/>
    </vehicle>
    <vehicle id="101" depart="202.00">
        <route edges="gneE1 -gneE2"/>
    </vehicle>
    <vehicle id="102" depart="204.00">
        <route edges="gneE3 -gneE2"/>
    </vehicle>
    <vehicle id="103" depart="206.00">
        <route edges="gneE1 -gneE2"/>
    </vehicle>
    <vehicle id="105" depart="210.00">
        <route edges="gneE1 -gneE2"/>
    </vehicle>
    <vehicle id="107" depart="214.00">
        <route edges="gneE3 -gneE2"/>
    </vehicle>
    <vehicle id="109" depart="218.00">
        <route edges="gneE3 -gneE1"/>
    </vehicle>
    <vehicle id="110" depart="220.00">
        <route edges="gneE3 -gneE1"/>
    </vehicle>
    <vehicle id="112" depart="224.00">
        <route edges="gneE2 -gneE1"/>
    </vehicle>
    <vehicle id="113" depart="226.00">
        <route edges="gneE3 -gneE1"/>
    </vehicle>
    <vehicle id="114" depart="228.00">
        <route edges="gneE1 -gneE2"/>
    </vehicle>
    <vehicle id="115" depart="230.00">
        <route edges="gneE3 -gneE1"/>
    </vehicle>
    <vehicle id="116" depart="232.00">
        <route edges="gneE3 -gneE2"/>
    </vehicle>
    <vehicle id="117" depart="234.00">
        <route edges="gneE3 -gneE1"/>
    </vehicle>
    <vehicle id="118" depart="236.00">
        <route edges="gneE1 -gneE2"/>
    </vehicle>
    <vehicle id="120" depart="240.00">
        <route edges="gneE3 -gneE2"/>
    </vehicle>
    <vehicle id="122" depart="244.00">
        <route edges="gneE3 -gneE2"/>
    </vehicle>
    <vehicle id="124" depart="248.00">
        <route edges="gneE1 -gneE2"/>
    </vehicle>
    <vehicle id="127" depart="254.00">
        <route edges="gneE1 -gneE2"/>
    </vehicle>
    <vehicle id="128" depart="256.00">
        <route edges="gneE3 -gneE1"/>
    </vehicle>
    <vehicle id="129" depart="258.00">
        <route edges="gneE3 -gneE2"/>
    </vehicle>
    <vehicle id="130" depart="260.00">
        <route edges="gneE3 -gneE2"/>
    </vehicle>
    <vehicle id="133" depart="266.00">
        <route edges="gneE3 -gneE2"/>
    </vehicle>
    <vehicle id="134" depart="268.00">
        <route edges="gneE3 -gneE2"/>
    </vehicle>
    <vehicle id="135" depart="270.00">
        <route edges="gneE1 -gneE2"/>
    </vehicle>
    <vehicle id="136" depart="272.00">
        <route edges="gneE2 -gneE1"/>
    </vehicle>
    <vehicle id="137" depart="274.00">
        <route edges="gneE3 -gneE1"/>
    </vehicle>
    <vehicle id="138" depart="276.00">
        <route edges="gneE1 -gneE2"/>
    </vehicle>
    <vehicle id="139" depart="278.00">
        <route edges="gneE3 -gneE1"/>
    </vehicle>
    <vehicle id="141" depart="282.00">
        <route edges="gneE1 -gneE2"/>
    </vehicle>
    <vehicle id="142" depart="284.00">
        <route edges="gneE1 -gneE2"/>
    </vehicle>
    <vehicle id="143" depart="286.00">
        <route edges="gneE2 -gneE1"/>
    </vehicle>
    <vehicle id="147" depart="294.00">
        <route edges="gneE3 -gneE1"/>
    </vehicle>
    <vehicle id="150" depart="300.00">
        <route edges="gneE2 -gneE1"/>
    </vehicle>
    <vehicle id="151" depart="302.00">
        <route edges="gneE2 -gneE1"/>
    </vehicle>
    <vehicle id="152" depart="304.00">
        <route edges="gneE3 -gneE1"/>
    </vehicle>
    <vehicle id="154" depart="308.00">
        <route edges="gneE2 -gneE1"/>
    </vehicle>
    <vehicle id="156" depart="312.00">
        <route edges="gneE3 -gneE2"/>
    </vehicle>
    <vehicle id="157" depart="314.00">
        <route edges="gneE3 -gneE2"/>
    </vehicle>
    <vehicle id="158" depart="316.00">
        <route edges="gneE2 -gneE1"/>
    </vehicle>
    <vehicle id="159" depart="318.00">
        <route edges="gneE3 -gneE2"/>
    </vehicle>
    <vehicle id="161" depart="322.00">
        <route edges="gneE2 -gneE1"/>
    </vehicle>
    <vehicle id="162" depart="324.00">
        <route edges="gneE1 -gneE2"/>
    </vehicle>
    <vehicle id="163" depart="326.00">
        <route edges="gneE3 -gneE2"/>
    </vehicle>
    <vehicle id="164" depart="328.00">
        <route edges="gneE3 -gneE2"/>
    </vehicle>
    <vehicle id="168" depart="336.00">
        <route edges="gneE3 -gneE2"/>
    </vehicle>
    <vehicle id="169" depart="338.00">
        <route edges="gneE2 -gneE1"/>
    </vehicle>
    <vehicle id="170" depart="340.00">
        <route edges="gneE3 -gneE1"/>
    </vehicle>
    <vehicle id="171" depart="342.00">
        <route edges="gneE1 -gneE2"/>
    </vehicle>
    <vehicle id="173" depart="346.00">
        <route edges="gneE1 -gneE2"/>
    </vehicle>
    <vehicle id="174" depart="348.00">
        <route edges="gneE3 -gneE1"/>
    </vehicle>
    <vehicle id="175" depart="350.00">
        <route edges="gneE3 -gneE1"/>
    </vehicle>
    <vehicle id="176" depart="352.00">
        <route edges="gneE1 -gneE2"/>
    </vehicle>
    <vehicle id="178" depart="356.00">
        <route edges="gneE3 -gneE2"/>
    </vehicle>
    <vehicle id="180" depart="360.00">
        <route edges="gneE3 -gneE1"/>
    </vehicle>
    <vehicle id="181" depart="362.00">
        <route edges="gneE1 -gneE2"/>
    </vehicle>
    <vehicle id="182" depart="364.00">
        <route edges="gneE3 -gneE2"/>
    </vehicle>
    <vehicle id="183" depart="366.00">
        <route edges="gneE1 -gneE2"/>
    </vehicle>
    <vehicle id="184" depart="368.00">
        <route edges="gneE3 -gneE1"/>
    </vehicle>
    <vehicle id="185" depart="370.00">
        <route edges="gneE2 -gneE1"/>
    </vehicle>
    <vehicle id="186" depart="372.00">
        <route edges="gneE3 -gneE2"/>
    </vehicle>
    <vehicle id="188" depart="376.00">
        <route edges="gneE3 -gneE2"/>
    </vehicle>
    <vehicle id="189" depart="378.00">
        <route edges="gneE3 -gneE1"/>
    </vehicle>
    <vehicle id="190" depart="380.00">
        <route edges="gneE2 -gneE1"/>
    </vehicle>
    <vehicle id="191" depart="382.00">
        <route edges="gneE3 -gneE1"/>
    </vehicle>
    <vehicle id="192" depart="384.00">
        <route edges="gneE3 -gneE2"/>
    </vehicle>
    <vehicle id="193" depart="386.00">
        <route edges="gneE3 -gneE1"/>
    </vehicle>
    <vehicle id="194" depart="388.00">
        <route edges="gneE2 -gneE1"/>
    </vehicle>
    <vehicle id="196" depart="392.00">
        <route edges="gneE2 -gneE1"/>
    </vehicle>
    <vehicle id="198" depart="396.00">
        <route edges="gneE2 -gneE1"/>
    </vehicle>
    <vehicle id="199" depart="398.00">
        <route edges="gneE2 -gneE1"/>
    </vehicle>
    <vehicle id="200" depart="400.00">
        <route edges="gneE1 -gneE2"/>
    </vehicle>
    <vehicle id="201" depart="402.00">
        <route edges="gneE1 -gneE2"/>
    </vehicle>
    <vehicle id="203" depart="406.00">
        <route edges="gneE3 -gneE1"/>
    </vehicle>
    <vehicle id="204" depart="408.00">
        <route edges="gneE1 -gneE2"/>
    </vehicle>
    <vehicle id="206" depart="412.00">
        <route edges="gneE3 -gneE2"/>
    </vehicle>
    <vehicle id="208" depart="416.00">
        <route edges="gneE3 -gneE2"/>
    </vehicle>
    <vehicle id="209" depart="418.00">
        <route edges="gneE1 -gneE2"/>
    </vehicle>
    <vehicle id="210" depart="420.00">
        <route edges="gneE3 -gneE1"/>
    </vehicle>
    <vehicle id="211" depart="422.00">
        <route edges="gneE1 -gneE2"/>
    </vehicle>
    <vehicle id="212" depart="424.00">
        <route edges="gneE1 -gneE2"/>
    </vehicle>
    <vehicle id="213" depart="426.00">
        <route edges="gneE3 -gneE1"/>
    </vehicle>
    <vehicle id="215" depart="430.00">
        <route edges="gneE2 -gneE1"/>
    </vehicle>
    <vehicle id="217" depart="434.00">
        <route edges="gneE3 -gneE1"/>
    </vehicle>
    <vehicle id="218" depart="436.00">
        <route edges="gneE1 -gneE2"/>
    </vehicle>
    <vehicle id="219" depart="438.00">
        <route edges="gneE3 -gneE2"/>
    </vehicle>
    <vehicle id="222" depart="444.00">
        <route edges="gneE2 -gneE1"/>
    </vehicle>
    <vehicle id="223" depart="446.00">
        <route edges="gneE1 -gneE2"/>
    </vehicle>
    <vehicle id="224" depart="448.00">
        <route edges="gneE2 -gneE1"/>
    </vehicle>
    <vehicle id="225" depart="450.00">
        <route edges="gneE2 -gneE1"/>
    </vehicle>
    <vehicle id="226" depart="452.00">
        <route edges="gneE2 -gneE1"/>
    </vehicle>
    <vehicle id="227" depart="454.00">
        <route edges="gneE3 -gneE2"/>
    </vehicle>
    <vehicle id="230" depart="460.00">
        <route edges="gneE3 -gneE2"/>
    </vehicle>
    <vehicle id="231" depart="462.00">
        <route edges="gneE1 -gneE2"/>
    </vehicle>
    <vehicle id="234" depart="468.00">
        <route edges="gneE2 -gneE1"/>
    </vehicle>
    <vehicle id="235" depart="470.00">
        <route edges="gneE3 -gneE2"/>
    </vehicle>
    <vehicle id="237" depart="474.00">
        <route edges="gneE3 -gneE2"/>
    </vehicle>
    <vehicle id="238" depart="476.00">
        <route edges="gneE3 -gneE1"/>
    </vehicle>
    <vehicle id="239" depart="478.00">
        <route edges="gneE3 -gneE1"/>
    </vehicle>
    <vehicle id="240" depart="480.00">
        <route edges="gneE2 -gneE1"/>
    </vehicle>
    <vehicle id="241" depart="482.00">
        <route edges="gneE3 -gneE2"/>
    </vehicle>
    <vehicle id="242" depart="484.00">
        <route edges="gneE1 -gneE2"/>
    </vehicle>
    <vehicle id="243" depart="486.00">
        <route edges="gneE3 -gneE1"/>
    </vehicle>
    <vehicle id="245" depart="490.00">
        <route edges="gneE3 -gneE1"/>
    </vehicle>
    <vehicle id="246" depart="492.00">
        <route edges="gneE1 -gneE2"/>
    </vehicle>
    <vehicle id="247" depart="494.00">
        <route edges="gneE2 -gneE1"/>
    </vehicle>
    <vehicle id="248" depart="496.00">
        <route edges="gneE1 -gneE2"/>
    </vehicle>
    <vehicle id="249" depart="498.00">
        <route edges="gneE3 -gneE2"/>
    </vehicle>
    <vehicle id="250" depart="500.00">
        <route edges="gneE3 -gneE2"/>
    </vehicle>
    <vehicle id="253" depart="506.00">
        <route edges="gneE2 -gneE1"/>
    </vehicle>
    <vehicle id="254" depart="508.00">
        <route edges="gneE3 -gneE2"/>
    </vehicle>
    <vehicle id="256" depart="512.00">
        <route edges="gneE3 -gneE2"/>
    </vehicle>
    <vehicle id="257" depart="514.00">
        <route edges="gneE3 -gneE2"/>
    </vehicle>
    <vehicle id="258" depart="516.00">
        <route edges="gneE1 -gneE2"/>
    </vehicle>
    <vehicle id="260" depart="520.00">
        <route edges="gneE3 -gneE1"/>
    </vehicle>
    <vehicle id="262" depart="524.00">
        <route edges="gneE3 -gneE1"/>
    </vehicle>
    <vehicle id="264" depart="528.00">
        <route edges="gneE3 -gneE2"/>
    </vehicle>
    <vehicle id="265" depart="530.00">
        <route edges="gneE3 -gneE1"/>
    </vehicle>
    <vehicle id="266" depart="532.00">
        <route edges="gneE3 -gneE1"/>
    </vehicle>
    <vehicle id="267" depart="534.00">
        <route edges="gneE1 -gneE2"/>
    </vehicle>
    <vehicle id="268" depart="536.00">
        <route edges="gneE3 -gneE2"/>
    </vehicle>
    <vehicle id="269" depart="538.00">
        <route edges="gneE2 -gneE1"/>
    </vehicle>
    <vehicle id="270" depart="540.00">
        <route edges="gneE3 -gneE1"/>
    </vehicle>
    <vehicle id="271" depart="542.00">
        <route edges="gneE3 -gneE1"/>
    </vehicle>
    <vehicle id="273" depart="546.00">
        <route edges="gneE3 -gneE2"/>
    </vehicle>
    <vehicle id="274" depart="548.00">
        <route edges="gneE1 -gneE2"/>
    </vehicle>
    <vehicle id="275" depart="550.00">
        <route edges="gneE2 -gneE1"/>
    </vehicle>
    <vehicle id="277" depart="554.00">
        <route edges="gneE2 -gneE1"/>
    </vehicle>
    <vehicle id="280" depart="560.00">
        <route edges="gneE3 -gneE2"/>
    </vehicle>
    <vehicle id="281" depart="562.00">
        <route edges="gneE2 -gneE1"/>
    </vehicle>
    <vehicle id="283" depart="566.00">
        <route edges="gneE3 -gneE2"/>
    </vehicle>
    <vehicle id="284" depart="568.00">
        <route edges="gneE3 -gneE1"/>
    </vehicle>
    <vehicle id="285" depart="570.00">
        <route edges="gneE3 -gneE1"/>
    </vehicle>
    <vehicle id="286" depart="572.00">
        <route edges="gneE2 -gneE1"/>
    </vehicle>
    <vehicle id="288" depart="576.00">
        <route edges="gneE2 -gneE1"/>
    </vehicle>
    <vehicle id="289" depart="578.00">
        <route edges="gneE3 -gneE1"/>
    </vehicle>
    <vehicle id="291" depart="582.00">
        <route edges="gneE3 -gneE2"/>
    </vehicle>
    <vehicle id="292" depart="584.00">
        <route edges="gneE3 -gneE2"/>
    </vehicle>
    <vehicle id="293" depart="586.00">
        <route edges="gneE3 -gneE1"/>
    </vehicle>
    <vehicle id="294" depart="588.00">
        <route edges="gneE1 -gneE2"/>
    </vehicle>
    <vehicle id="297" depart="594.00">
        <route edges="gneE3 -gneE2"/>
    </vehicle>
    <vehicle id="299" depart="598.00">
        <route edges="gneE3 -gneE1"/>
    </vehicle>
    <vehicle id="301" depart="602.00">
        <route edges="gneE1 -gneE2"/>
    </vehicle>
    <vehicle id="302" depart="604.00">
        <route edges="gneE1 -gneE2"/>
    </vehicle>
    <vehicle id="304" depart="608.00">
        <route edges="gneE1 -gneE2"/>
    </vehicle>
    <vehicle id="305" depart="610.00">
        <route edges="gneE1 -gneE2"/>
    </vehicle>
    <vehicle id="307" depart="614.00">
        <route edges="gneE3 -gneE2"/>
    </vehicle>
    <vehicle id="309" depart="618.00">
        <route edges="gneE3 -gneE2"/>
    </vehicle>
    <vehicle id="311" depart="622.00">
        <route edges="gneE3 -gneE1"/>
    </vehicle>
    <vehicle id="312" depart="624.00">
        <route edges="gneE3 -gneE2"/>
    </vehicle>
    <vehicle id="314" depart="628.00">
        <route edges="gneE3 -gneE1"/>
    </vehicle>
    <vehicle id="316" depart="632.00">
        <route edges="gneE3 -gneE2"/>
    </vehicle>
    <vehicle id="317" depart="634.00">
        <route edges="gneE3 -gneE2"/>
    </vehicle>
    <vehicle id="319" depart="638.00">
        <route edges="gneE2 -gneE1"/>
    </vehicle>
    <vehicle id="320" depart="640.00">
        <route edges="gneE3 -gneE1"/>
    </vehicle>
    <vehicle id="321" depart="642.00">
        <route edges="gneE3 -gneE1"/>
    </vehicle>
    <vehicle id="323" depart="646.00">
        <route edges="gneE2 -gneE1"/>
    </vehicle>
    <vehicle id="324" depart="648.00">
        <route edges="gneE3 -gneE1"/>
    </vehicle>
    <vehicle id="325" depart="650.00">
        <route edges="gneE2 -gneE1"/>
    </vehicle>
    <vehicle id="326" depart="652.00">
        <route edges="gneE3 -gneE1"/>
    </vehicle>
    <vehicle id="327" depart="654.00">
        <route edges="gneE3 -gneE1"/>
    </vehicle>
    <vehicle id="328" depart="656.00">
        <route edges="gneE2 -gneE1"/>
    </vehicle>
    <vehicle id="332" depart="664.00">
        <route edges="gneE1 -gneE2"/>
    </vehicle>
    <vehicle id="333" depart="666.00">
        <route edges="gneE1 -gneE2"/>
    </vehicle>
    <vehicle id="334" depart="668.00">
        <route edges="gneE1 -gneE2"/>
    </vehicle>
    <vehicle id="335" depart="670.00">
        <route edges="gneE1 -gneE2"/>
    </vehicle>
    <vehicle id="336" depart="672.00">
        <route edges="gneE3 -gneE1"/>
    </vehicle>
    <vehicle id="337" depart="674.00">
        <route edges="gneE3 -gneE2"/>
    </vehicle>
    <vehicle id="339" depart="678.00">
        <route edges="gneE2 -gneE1"/>
    </vehicle>
    <vehicle id="341" depart="682.00">
        <route edges="gneE1 -gneE2"/>
    </vehicle>
    <vehicle id="344" depart="688.00">
        <route edges="gneE3 -gneE2"/>
    </vehicle>
    <vehicle id="345" depart="690.00">
        <route edges="gneE2 -gneE1"/>
    </vehicle>
    <vehicle id="346" depart="692.00">
        <route edges="gneE3 -gneE2"/>
    </vehicle>
    <vehicle id="348" depart="696.00">
        <route edges="gneE3 -gneE2"/>
    </vehicle>
    <vehicle id="349" depart="698.00">
        <route edges="gneE2 -gneE1"/>
    </vehicle>
    <vehicle id="350" depart="700.00">
        <route edges="gneE3 -gneE2"/>
    </vehicle>
    <vehicle id="351" depart="702.00">
        <route edges="gneE3 -gneE2"/>
    </vehicle>
    <vehicle id="352" depart="704.00">
        <route edges="gneE3 -gneE1"/>
    </vehicle>
    <vehicle id="354" depart="708.00">
        <route edges="gneE2 -gneE1"/>
    </vehicle>
    <vehicle id="355" depart="710.00">
        <route edges="gneE2 -gneE1"/>
    </vehicle>
    <vehicle id="356" depart="712.00">
        <route edges="gneE3 -gneE2"/>
    </vehicle>
    <vehicle id="357" depart="714.00">
        <route edges="gneE1 -gneE2"/>
    </vehicle>
    <vehicle id="358" depart="716.00">
        <route edges="gneE2 -gneE1"/>
    </vehicle>
    <vehicle id="359" depart="718.00">
        <route edges="gneE1 -gneE2"/>
    </vehicle>
    <vehicle id="360" depart="720.00">
        <route edges="gneE3 -gneE1"/>
    </vehicle>
    <vehicle id="361" depart="722.00">
        <route edges="gneE3 -gneE2"/>
    </vehicle>
    <vehicle id="362" depart="724.00">
        <route edges="gneE2 -gneE1"/>
    </vehicle>
    <vehicle id="363" depart="726.00">
        <route edges="gneE2 -gneE1"/>
    </vehicle>
    <vehicle id="365" depart="730.00">
        <route edges="gneE2 -gneE1"/>
    </vehicle>
    <vehicle id="367" depart="734.00">
        <route edges="gneE1 -gneE2"/>
    </vehicle>
    <vehicle id="369" depart="738.00">
        <route edges="gneE1 -gneE2"/>
    </vehicle>
    <vehicle id="370" depart="740.00">
        <route edges="gneE2 -gneE1"/>
    </vehicle>
    <vehicle id="372" depart="744.00">
        <route edges="gneE2 -gneE1"/>
    </vehicle>
    <vehicle id="373" depart="746.00">
        <route edges="gneE3 -gneE1"/>
    </vehicle>
    <vehicle id="374" depart="748.00">
        <route edges="gneE3 -gneE1"/>
    </vehicle>
    <vehicle id="375" depart="750.00">
        <route edges="gneE3 -gneE2"/>
    </vehicle>
    <vehicle id="376" depart="752.00">
        <route edges="gneE2 -gneE1"/>
    </vehicle>
    <vehicle id="377" depart="754.00">
        <route edges="gneE3 -gneE2"/>
    </vehicle>
    <vehicle id="378" depart="756.00">
        <route edges="gneE3 -gneE2"/>
    </vehicle>
    <vehicle id="379" depart="758.00">
        <route edges="gneE2 -gneE1"/>
    </vehicle>
    <vehicle id="380" depart="760.00">
        <route edges="gneE3 -gneE2"/>
    </vehicle>
    <vehicle id="381" depart="762.00">
        <route edges="gneE3 -gneE1"/>
    </vehicle>
    <vehicle id="385" depart="770.00">
        <route edges="gneE2 -gneE1"/>
    </vehicle>
    <vehicle id="386" depart="772.00">
        <route edges="gneE2 -gneE1"/>
    </vehicle>
    <vehicle id="387" depart="774.00">
        <route edges="gneE1 -gneE2"/>
    </vehicle>
    <vehicle id="388" depart="776.00">
        <route edges="gneE2 -gneE1"/>
    </vehicle>
    <vehicle id="389" depart="778.00">
        <route edges="gneE2 -gneE1"/>
    </vehicle>
    <vehicle id="390" depart="780.00">
        <route edges="gneE3 -gneE1"/>
    </vehicle>
    <vehicle id="392" depart="784.00">
        <route edges="gneE3 -gneE1"/>
    </vehicle>
    <vehicle id="394" depart="788.00">
        <route edges="gneE3 -gneE1"/>
    </vehicle>
    <vehicle id="398" depart="796.00">
        <route edges="gneE1 -gneE2"/>
    </vehicle>
    <vehicle id="399" depart="798.00">
        <route edges="gneE2 -gneE1"/>
    </vehicle>
    <vehicle id="400" depart="800.00">
        <route edges="gneE3 -gneE2"/>
    </vehicle>
    <vehicle id="401" depart="802.00">
        <route edges="gneE2 -gneE1"/>
    </vehicle>
    <vehicle id="404" depart="808.00">
        <route edges="gneE3 -gneE1"/>
    </vehicle>
    <vehicle id="405" depart="810.00">
        <route edges="gneE3 -gneE2"/>
    </vehicle>
    <vehicle id="406" depart="812.00">
        <route edges="gneE3 -gneE1"/>
    </vehicle>
    <vehicle id="407" depart="814.00">
        <route edges="gneE3 -gneE2"/>
    </vehicle>
    <vehicle id="409" depart="818.00">
        <route edges="gneE3 -gneE2"/>
    </vehicle>
    <vehicle id="411" depart="822.00">
        <route edges="gneE3 -gneE1"/>
    </vehicle>
    <vehicle id="413" depart="826.00">
        <route edges="gneE3 -gneE1"/>
    </vehicle>
    <vehicle id="414" depart="828.00">
        <route edges="gneE3 -gneE2"/>
    </vehicle>
    <vehicle id="416" depart="832.00">
        <route edges="gneE2 -gneE1"/>
    </vehicle>
    <vehicle id="419" depart="838.00">
        <route edges="gneE1 -gneE2"/>
    </vehicle>
    <vehicle id="420" depart="840.00">
        <route edges="gneE2 -gneE1"/>
    </vehicle>
    <vehicle id="422" depart="844.00">
        <route edges="gneE2 -gneE1"/>
    </vehicle>
    <vehicle id="423" depart="846.00">
        <route edges="gneE3 -gneE1"/>
    </vehicle>
    <vehicle id="424" depart="848.00">
        <route edges="gneE3 -gneE2"/>
    </vehicle>
    <vehicle id="426" depart="852.00">
        <route edges="gneE3 -gneE1"/>
    </vehicle>
    <vehicle id="427" depart="854.00">
        <route edges="gneE2 -gneE1"/>
    </vehicle>
    <vehicle id="428" depart="856.00">
        <route edges="gneE1 -gneE2"/>
    </vehicle>
    <vehicle id="429" depart="858.00">
        <route edges="gneE3 -gneE1"/>
    </vehicle>
    <vehicle id="430" depart="860.00">
        <route edges="gneE3 -gneE2"/>
    </vehicle>
    <vehicle id="431" depart="862.00">
        <route edges="gneE3 -gneE2"/>
    </vehicle>
    <vehicle id="432" depart="864.00">
        <route edges="gneE3 -gneE2"/>
    </vehicle>
    <vehicle id="433" depart="866.00">
        <route edges="gneE2 -gneE1"/>
    </vehicle>
    <vehicle id="435" depart="870.00">
        <route edges="gneE3 -gneE2"/>
    </vehicle>
    <vehicle id="436" depart="872.00">
        <route edges="gneE1 -gneE2"/>
    </vehicle>
    <vehicle id="438" depart="876.00">
        <route edges="gneE3 -gneE2"/>
    </vehicle>
    <vehicle id="439" depart="878.00">
        <route edges="gneE3 -gneE1"/>
    </vehicle>
    <vehicle id="440" depart="880.00">
        <route edges="gneE2 -gneE1"/>
    </vehicle>
    <vehicle id="441" depart="882.00">
        <route edges="gneE1 -gneE2"/>
    </vehicle>
    <vehicle id="442" depart="884.00">
        <route edges="gneE2 -gneE1"/>
    </vehicle>
    <vehicle id="443" depart="886.00">
        <route edges="gneE3 -gneE1"/>
    </vehicle>
    <vehicle id="445" depart="890.00">
        <route edges="gneE3 -gneE2"/>
    </vehicle>
    <vehicle id="446" depart="892.00">
        <route edges="gneE3 -gneE1"/>
    </vehicle>
    <vehicle id="447" depart="894.00">
        <route edges="gneE2 -gneE1"/>
    </vehicle>
    <vehicle id="448" depart="896.00">
        <route edges="gneE3 -gneE1"/>
    </vehicle>
    <vehicle id="449" depart="898.00">
        <route edges="gneE2 -gneE1"/>
    </vehicle>
    <vehicle id="450" depart="900.00">
        <route edges="gneE3 -gneE2"/>
    </vehicle>
    <vehicle id="451" depart="902.00">
        <route edges="gneE2 -gneE1"/>
    </vehicle>
    <vehicle id="452" depart="904.00">
        <route edges="gneE3 -gneE1"/>
    </vehicle>
    <vehicle id="453" depart="906.00">
        <route edges="gneE3 -gneE2"/>
    </vehicle>