<?xml version="1.0" encoding="UTF-8"?>

<!-- generated on Mon Nov 19 18:11:22 2018 by SUMO duarouter Version 0.30.0
<?xml version="1.0" encoding="UTF-8"?>

<configuration xmlns:xsi="http://www.w3.org/2001/XMLSchema-instance" xsi:noNamespaceSchemaLocation="http://sumo.dlr.de/xsd/duarouterConfiguration.xsd">

    <input>
        <net-file value="manhattan_test/manhattan_test.net.xml"/>
        <route-files value="trips.trips.xml"/>
    </input>

    <output>
        <output-file value="manhattan_test/route/manhattan_test-2.0-1.rou.xml"/>
    </output>

    <processing>
        <ignore-errors value="true"/>
    </processing>

    <time>
        <begin value="0.0"/>
        <end value="5400.0"/>
    </time>

    <report>
        <no-warnings value="true"/>
        <no-step-log value="true"/>
    </report>

</configuration>
-->

<routes xmlns:xsi="http://www.w3.org/2001/XMLSchema-instance" xsi:noNamespaceSchemaLocation="http://sumo.dlr.de/xsd/routes_file.xsd">
    <vehicle id="1" depart="2.00">
        <route edges="gneE19 1/2to1/1 1/1to0/1 0/1to0/2 0/2to1/2 1/2to2/2 gneE9"/>
    </vehicle>
    <vehicle id="3" depart="6.00">
        <route edges="-gneE14 0/0to0/1"/>
    </vehicle>
    <vehicle id="4" depart="8.00">
        <route edges="-gneE5 0/2to1/2 1/2to2/2 2/2to2/1"/>
    </vehicle>
    <vehicle id="5" depart="10.00">
        <route edges="gneE20 2/1to1/1 1/1to0/1 -gneE23"/>
    </vehicle>
    <vehicle id="7" depart="14.00">
        <route edges="gneE20 2/1to1/1 1/1to0/1 0/1to0/2 0/2to1/2 1/2to1/1 1/1to1/0 1/0to0/0 gneE13"/>
    </vehicle>
    <vehicle id="10" depart="20.00">
        <route edges="2/1to2/0 2/0to1/0 1/0to0/0 0/0to0/1 0/1to1/1 1/1to1/0 -gneE22"/>
    </vehicle>
    <vehicle id="11" depart="22.00">
        <route edges="gneE23 0/1to1/1 1/1to2/1 2/1to2/0 gneE11"/>
    </vehicle>
    <vehicle id="12" depart="24.00">
        <route edges="-gneE13 0/0to1/0 -gneE22"/>
    </vehicle>
    <vehicle id="13" depart="26.00">
        <route edges="gneE22 1/0to1/1 1/1to1/2 -gneE19"/>
    </vehicle>
    <vehicle id="14" depart="28.00">
        <route edges="gneE20 2/1to1/1 1/1to0/1 0/1to0/2 gneE7"/>
    </vehicle>
    <vehicle id="15" depart="30.00">
        <route edges="-gneE12 2/0to1/0 1/0to0/0 0/0to0/1 0/1to0/2 gneE7"/>
    </vehicle>
    <vehicle id="17" depart="34.00">
        <route edges="1/1to1/0 1/0to0/0 0/0to0/1 0/1to1/1 1/1to2/1 -gneE20"/>
    </vehicle>
    <vehicle id="18" depart="36.00">
        <route edges="-gneE14 0/0to0/1 0/1to0/2 0/2to1/2 1/2to2/2 gneE9"/>
    </vehicle>
    <vehicle id="19" depart="38.00">
        <route edges="-gneE8 2/2to2/1 2/1to2/0 gneE11"/>
    </vehicle>
    <vehicle id="21" depart="42.00">
        <route edges="-gneE5 0/2to0/1 0/1to0/0 gneE13"/>
    </vehicle>
    <vehicle id="23" depart="46.00">
        <route edges="gneE20 2/1to1/1 1/1to1/2 1/2to2/2 2/2to2/1 2/1to2/0 gneE11"/>
    </vehicle>
    <vehicle id="24" depart="48.00">
        <route edges="-gneE12 2/0to1/0 1/0to0/0 0/0to0/1 0/1to1/1 1/1to1/0 -gneE22"/>
    </vehicle>
    <vehicle id="25" depart="50.00">
        <route edges="1/2to1/1 1/1to1/0 -gneE22"/>
    </vehicle>
    <vehicle id="26" depart="52.00">
        <route edges="gneE22 1/0to1/1"/>
    </vehicle>
    <vehicle id="27" depart="54.00">
        <route edges="-gneE12 2/0to1/0 1/0to1/1 1/1to1/2"/>
    </vehicle>
    <vehicle id="30" depart="60.00">
        <route edges="1/0to1/1 1/1to1/2 -gneE19"/>
    </vehicle>
    <vehicle id="32" depart="64.00">
        <route edges="gneE23 0/1to1/1 1/1to1/0 1/0to0/0 0/0to0/1 0/1to0/2 gneE7"/>
    </vehicle>
    <vehicle id="33" depart="66.00">
        <route edges="gneE23 0/1to1/1 1/1to1/0 1/0to0/0 0/0to0/1 0/1to0/2 gneE7"/>
    </vehicle>
    <vehicle id="34" depart="68.00">
        <route edges="-gneE9 2/2to1/2 1/2to0/2"/>
    </vehicle>
    <vehicle id="35" depart="70.00">
        <route edges="-gneE12 2/0to2/1 2/1to2/2 gneE8"/>
    </vehicle>
    <vehicle id="37" depart="74.00">
        <route edges="-gneE8 2/2to1/2 1/2to0/2 gneE5"/>
    </vehicle>
    <vehicle id="39" depart="78.00">
        <route edges="gneE20 2/1to1/1 1/1to1/2 -gneE19"/>
    </vehicle>
    <vehicle id="40" depart="80.00">
        <route edges="gneE22 1/0to1/1 1/1to1/2 1/2to2/2 gneE9"/>
    </vehicle>
    <vehicle id="41" depart="82.00">
        <route edges="gneE23 0/1to0/0 gneE14"/>
    </vehicle>
    <vehicle id="42" depart="84.00">
        <route edges="-gneE5 0/2to1/2 1/2to1/1 1/1to1/0 1/0to0/0"/>
    </vehicle>
    <vehicle id="45" depart="90.00">
        <route edges="-gneE14 0/0to0/1 0/1to0/2 0/2to1/2 1/2to2/2 2/2to2/1 2/1to1/1 1/1to1/2 -gneE19"/>
    </vehicle>
    <vehicle id="46" depart="92.00">
        <route edges="0/0to1/0 1/0to2/0 gneE11"/>
    </vehicle>
    <vehicle id="47" depart="94.00">
        <route edges="-gneE13 0/0to1/0 1/0to2/0 gneE12"/>
    </vehicle>
    <vehicle id="48" depart="96.00">
        <route edges="-gneE12 2/0to1/0 1/0to0/0 0/0to0/1 0/1to0/2 gneE7"/>
    </vehicle>
    <vehicle id="50" depart="100.00">
        <route edges="-gneE14 0/0to0/1 0/1to0/2 0/2to1/2 1/2to1/1 1/1to0/1 -gneE23"/>
    </vehicle>
    <vehicle id="51" depart="102.00">
        <route edges="gneE23 0/1to1/1 1/1to2/1 2/1to2/0 gneE11"/>
    </vehicle>
    <vehicle id="53" depart="106.00">
        <route edges="-gneE8 2/2to2/1 2/1to1/1 1/1to0/1 -gneE23"/>
    </vehicle>
    <vehicle id="57" depart="114.00">
        <route edges="gneE19 1/2to1/1 1/1to0/1 0/1to0/2 0/2to1/2 1/2to2/2 2/2to2/1 2/1to2/0 gneE11"/>
    </vehicle>
    <vehicle id="60" depart="120.00">
        <route edges="gneE22 1/0to1/1 1/1to2/1 2/1to2/0 2/0to1/0 1/0to0/0 0/0to0/1 0/1to0/2 gneE7"/>
    </vehicle>
    <vehicle id="63" depart="126.00">
        <route edges="0/2to1/2 1/2to1/1 1/1to1/0 1/0to0/0 gneE13"/>
    </vehicle>
    <vehicle id="68" depart="136.00">
        <route edges="gneE19 1/2to1/1 1/1to0/1 0/1to0/2 0/2to1/2 1/2to2/2 gneE9"/>
    </vehicle>
    <vehicle id="72" depart="144.00">
        <route edges="-gneE7 0/2to0/1 -gneE23"/>
    </vehicle>
    <vehicle id="73" depart="146.00">
        <route edges="gneE22 1/0to1/1 1/1to1/2 1/2to2/2 2/2to2/1 2/1to1/1 1/1to0/1 -gneE23"/>
    </vehicle>
    <vehicle id="75" depart="150.00">
        <route edges="-gneE9 2/2to1/2 1/2to0/2 gneE7"/>
    </vehicle>
    <vehicle id="77" depart="154.00">
        <route edges="gneE20 2/1to1/1 1/1to0/1 0/1to0/2 0/2to1/2 1/2to1/1 1/1to1/0 1/0to0/0 gneE13"/>
    </vehicle>
    <vehicle id="80" depart="160.00">
        <route edges="-gneE5 0/2to0/1 0/1to0/0 gneE14"/>
    </vehicle>
    <vehicle id="83" depart="166.00">
        <route edges="gneE20 2/1to1/1 1/1to0/1 -gneE23"/>
    </vehicle>
    <vehicle id="84" depart="168.00">
        <route edges="gneE20 2/1to1/1 1/1to0/1 0/1to0/2 gneE7"/>
    </vehicle>
    <vehicle id="86" depart="172.00">
        <route edges="gneE22 1/0to1/1 1/1to2/1 -gneE20"/>
    </vehicle>
    <vehicle id="87" depart="174.00">
        <route edges="1/2to1/1 1/1to0/1 -gneE23"/>
    </vehicle>
    <vehicle id="90" depart="180.00">
        <route edges="-gneE14 0/0to0/1 0/1to0/2 0/2to1/2 1/2to1/1"/>
    </vehicle>
    <vehicle id="91" depart="182.00">
        <route edges="-gneE8 2/2to2/1 2/1to2/0"/>
    </vehicle>
    <vehicle id="92" depart="184.00">
        <route edges="gneE22 1/0to1/1 1/1to1/2 -gneE19"/>
    </vehicle>
    <vehicle id="95" depart="190.00">
        <route edges="gneE22 1/0to1/1 1/1to2/1 2/1to2/0 2/0to1/0 1/0to0/0 0/0to0/1 0/1to0/2 gneE7"/>
    </vehicle>
    <vehicle id="96" depart="192.00">
        <route edges="gneE20 2/1to1/1 1/1to1/2 1/2to2/2 2/2to2/1 2/1to2/0 2/0to1/0"/>
    </vehicle>
    <vehicle id="97" depart="194.00">
        <route edges="gneE20 2/1to1/1 1/1to1/2 1/2to2/2 2/2to2/1 2/1to2/0 gneE11"/>
    </vehicle>
    <vehicle id="98" depart="196.00">
        <route edges="1/1to0/1 -gneE23"/>
    </vehicle>
    <vehicle id="100" depart="200.00">
        <route edges="-gneE5 0/2to1/2 1/2to1/1 1/1to1/0 -gneE22"/>
    </vehicle>
    <vehicle id="101" depart="202.00">
        <route edges="-gneE8 2/2to2/1 2/1to2/0 2/0to1/0 1/0to1/1 1/1to2/1 -gneE20"/>
    </vehicle>
    <vehicle id="105" depart="210.00">
        <route edges="-gneE7 0/2to0/1 0/1to0/0 gneE13"/>
    </vehicle>
    <vehicle id="106" depart="212.00">
        <route edges="gneE22 1/0to1/1 1/1to2/1 -gneE20"/>
    </vehicle>
    <vehicle id="108" depart="216.00">
        <route edges="-gneE5 0/2to1/2 1/2to2/2 2/2to2/1 2/1to2/0 2/0to1/0 1/0to1/1 1/1to2/1 -gneE20"/>
    </vehicle>
    <vehicle id="109" depart="218.00">
        <route edges="gneE19 1/2to1/1 1/1to1/0 1/0to0/0 gneE13"/>
    </vehicle>
    <vehicle id="112" depart="224.00">
        <route edges="-gneE12 2/0to1/0 1/0to0/0 gneE13"/>
    </vehicle>
    <vehicle id="113" depart="226.00">
        <route edges="2/1to1/1 1/1to0/1 -gneE23"/>
    </vehicle>
    <vehicle id="115" depart="230.00">
        <route edges="-gneE14 0/0to0/1 0/1to0/2 0/2to1/2 1/2to1/1 1/1to0/1 -gneE23"/>
    </vehicle>
    <vehicle id="116" depart="232.00">
        <route edges="gneE23 0/1to1/1 1/1to1/0 -gneE22"/>
    </vehicle>
    <vehicle id="118" depart="236.00">
        <route edges="-gneE14 0/0to0/1 0/1to0/2 0/2to1/2 1/2to2/2 2/2to2/1 2/1to1/1 1/1to1/2 -gneE19"/>
    </vehicle>
    <vehicle id="123" depart="246.00">
        <route edges="gneE23 0/1to0/0 gneE14"/>
    </vehicle>
    <vehicle id="126" depart="252.00">
        <route edges="-gneE12 2/0to1/0 1/0to1/1 1/1to1/2 -gneE19"/>
    </vehicle>
    <vehicle id="128" depart="256.00">
        <route edges="gneE22 1/0to1/1 1/1to2/1 2/1to2/0 2/0to1/0 1/0to0/0 gneE13"/>
    </vehicle>
    <vehicle id="132" depart="264.00">
        <route edges="-gneE14 0/0to1/0 1/0to2/0"/>
    </vehicle>
    <vehicle id="136" depart="272.00">
        <route edges="-gneE8 2/2to1/2 1/2to0/2 gneE5"/>
    </vehicle>
    <vehicle id="138" depart="276.00">
        <route edges="-gneE9 2/2to1/2"/>
    </vehicle>
    <vehicle id="139" depart="278.00">
        <route edges="gneE23 0/1to1/1 1/1to1/0 1/0to0/0 0/0to0/1 0/1to0/2 0/2to1/2 1/2to1/1"/>
    </vehicle>
    <vehicle id="142" depart="284.00">
        <route edges="-gneE5 0/2to1/2 1/2to2/2 2/2to2/1 2/1to1/1 1/1to1/2 -gneE19"/>
    </vehicle>
    <vehicle id="143" depart="286.00">
        <route edges="gneE19 1/2to1/1 1/1to1/0 -gneE22"/>
    </vehicle>
    <vehicle id="144" depart="288.00">
        <route edges="-gneE7 0/2to0/1 -gneE23"/>
    </vehicle>
    <vehicle id="146" depart="292.00">
        <route edges="-gneE12 2/0to1/0 1/0to0/0 gneE13"/>
    </vehicle>
    <vehicle id="147" depart="294.00">
        <route edges="gneE22 1/0to1/1 1/1to1/2 1/2to2/2 2/2to2/1 2/1to1/1 1/1to0/1 -gneE23"/>
    </vehicle>
    <vehicle id="148" depart="296.00">
        <route edges="gneE22 1/0to1/1 1/1to2/1 -gneE20"/>
    </vehicle>
    <vehicle id="150" depart="300.00">
        <route edges="-gneE14 0/0to0/1 0/1to0/2 gneE7"/>
    </vehicle>
    <vehicle id="153" depart="306.00">
        <route edges="gneE22 1/0to1/1 1/1to2/1 2/1to2/0 2/0to1/0 1/0to0/0 0/0to0/1 0/1to0/2 gneE7"/>
    </vehicle>
    <vehicle id="154" depart="308.00">
        <route edges="1/1to1/2 1/2to2/2 2/2to2/1 2/1to2/0 gneE11"/>
    </vehicle>
    <vehicle id="155" depart="310.00">
        <route edges="1/1to0/1 0/1to0/2 0/2to1/2 1/2to2/2 2/2to2/1 2/1to1/1 1/1to1/2 -gneE19"/>
    </vehicle>
    <vehicle id="157" depart="314.00">
        <route edges="-gneE14 0/0to1/0 1/0to2/0 gneE12"/>
    </vehicle>
    <vehicle id="159" depart="318.00">
        <route edges="gneE22 1/0to2/0 gneE12"/>
    </vehicle>
    <vehicle id="160" depart="320.00">
        <route edges="-gneE11 2/0to2/1 2/1to2/2 gneE8"/>
    </vehicle>
    <vehicle id="161" depart="322.00">
        <route edges="gneE22 1/0to1/1 1/1to2/1 2/1to2/0 2/0to1/0 1/0to0/0 0/0to0/1 0/1to0/2 gneE7"/>
    </vehicle>
    <vehicle id="162" depart="324.00">
        <route edges="-gneE11 2/0to2/1 -gneE20"/>
    </vehicle>
    <vehicle id="164" depart="328.00">
        <route edges="-gneE5 0/2to1/2 1/2to2/2 2/2to2/1 2/1to1/1 1/1to1/2 -gneE19"/>
    </vehicle>
    <vehicle id="170" depart="340.00">
        <route edges="gneE23 0/1to1/1 1/1to1/0 1/0to0/0 0/0to0/1 0/1to0/2 0/2to1/2"/>
    </vehicle>
    <vehicle id="171" depart="342.00">
        <route edges="-gneE8 2/2to2/1 2/1to1/1 1/1to0/1 0/1to0/2 0/2to1/2 1/2to1/1 1/1to1/0 -gneE22"/>
    </vehicle>
    <vehicle id="172" depart="344.00">
        <route edges="-gneE5 0/2to1/2 1/2to2/2 gneE9"/>
    </vehicle>
    <vehicle id="173" depart="346.00">
        <route edges="gneE19 1/2to1/1 1/1to0/1 -gneE23"/>
    </vehicle>
    <vehicle id="175" depart="350.00">
        <route edges="0/2to0/1 0/1to0/0 gneE14"/>
    </vehicle>
    <vehicle id="180" depart="360.00">
        <route edges="1/1to1/0 -gneE22"/>
    </vehicle>
    <vehicle id="181" depart="362.00">
        <route edges="-gneE14 0/0to0/1 0/1to0/2 0/2to1/2 1/2to1/1 1/1to0/1 -gneE23"/>
    </vehicle>
    <vehicle id="182" depart="364.00">
        <route edges="2/2to2/1 2/1to2/0 gneE11"/>
    </vehicle>
    <vehicle id="183" depart="366.00">
        <route edges="-gneE11 2/0to2/1 2/1to2/2 gneE9"/>
    </vehicle>
    <vehicle id="184" depart="368.00">
        <route edges="-gneE14 0/0to1/0 1/0to2/0 gneE12"/>
    </vehicle>
    <vehicle id="185" depart="370.00">
        <route edges="-gneE12 2/0to1/0 1/0to1/1 1/1to1/2"/>
    </vehicle>
    <vehicle id="186" depart="372.00">
        <route edges="2/2to2/1 2/1to2/0 2/0to1/0 1/0to0/0 gneE13"/>
    </vehicle>
    <vehicle id="188" depart="376.00">
        <route edges="gneE19 1/2to0/2 gneE5"/>
    </vehicle>
    <vehicle id="189" depart="378.00">
        <route edges="gneE19 1/2to1/1 1/1to1/0 1/0to0/0 0/0to0/1 0/1to1/1 1/1to2/1 -gneE20"/>
    </vehicle>
    <vehicle id="190" depart="380.00">
        <route edges="-gneE8 2/2to2/1 2/1to1/1 1/1to0/1 0/1to0/2 0/2to1/2 1/2to1/1 1/1to1/0 -gneE22"/>
    </vehicle>
    <vehicle id="191" depart="382.00">
        <route edges="2/0to1/0 1/0to1/1 1/1to1/2 1/2to2/2 gneE9"/>
    </vehicle>
    <vehicle id="194" depart="388.00">
        <route edges="gneE19 1/2to1/1 1/1to1/0 1/0to0/0 gneE13"/>
    </vehicle>
    <vehicle id="195" depart="390.00">
        <route edges="-gneE12 2/0to2/1 2/1to2/2"/>
    </vehicle>
    <vehicle id="196" depart="392.00">
        <route edges="gneE22 1/0to1/1 1/1to1/2 -gneE19"/>
    </vehicle>
    <vehicle id="199" depart="398.00">
        <route edges="-gneE5 0/2to0/1 0/1to0/0 gneE13"/>
    </vehicle>
    <vehicle id="202" depart="404.00">
        <route edges="-gneE11 2/0to2/1 2/1to2/2 gneE8"/>
    </vehicle>
    <vehicle id="204" depart="408.00">
        <route edges="-gneE12 2/0to1/0 1/0to0/0 0/0to0/1 0/1to0/2 0/2to1/2 1/2to1/1 1/1to0/1 -gneE23"/>
    </vehicle>
    <vehicle id="205" depart="410.00">
        <route edges="-gneE14 0/0to1/0 1/0to2/0 gneE12"/>
    </vehicle>
    <vehicle id="209" depart="418.00">
        <route edges="-gneE14 0/0to1/0 1/0to2/0 gneE11"/>
    </vehicle>
    <vehicle id="210" depart="420.00">
        <route edges="gneE20 2/1to1/1 1/1to0/1 0/1to0/2 0/2to1/2 1/2to1/1 1/1to1/0 1/0to0/0 0/0to0/1 0/1to1/1"/>
    </vehicle>
    <vehicle id="215" depart="430.00">
        <route edges="-gneE11 2/0to2/1"/>
    </vehicle>
    <vehicle id="218" depart="436.00">
        <route edges="gneE20 2/1to1/1 1/1to1/2 -gneE19"/>
    </vehicle>
    <vehicle id="219" depart="438.00">
        <route edges="gneE20 2/1to1/1 1/1to0/1 0/1to0/2 0/2to1/2 1/2to1/1 1/1to1/0 -gneE22"/>
    </vehicle>
    <vehicle id="220" depart="440.00">
        <route edges="gneE23 0/1to1/1 1/1to2/1 2/1to2/0 2/0to1/0 1/0to1/1 1/1to1/2 -gneE19"/>
    </vehicle>
    <vehicle id="221" depart="442.00">
        <route edges="gneE20 2/1to1/1 1/1to0/1 0/1to0/2 0/2to1/2"/>
    </vehicle>
    <vehicle id="222" depart="444.00">
        <route edges="-gneE8 2/2to2/1 2/1to1/1 1/1to0/1 0/1to0/2 0/2to1/2 1/2to1/1 1/1to1/0 -gneE22"/>
    </vehicle>
    <vehicle id="225" depart="450.00">
        <route edges="-gneE12 2/0to1/0 1/0to0/0 0/0to0/1 0/1to0/2 0/2to1/2 1/2to1/1 1/1to0/1 -gneE23"/>
    </vehicle>
    <vehicle id="228" depart="456.00">
        <route edges="-gneE14 0/0to0/1 0/1to0/2 0/2to1/2 1/2to2/2 2/2to2/1 2/1to1/1 1/1to1/2 -gneE19"/>
    </vehicle>
    <vehicle id="234" depart="468.00">
        <route edges="-gneE5 0/2to1/2"/>
    </vehicle>
    <vehicle id="236" depart="472.00">
        <route edges="gneE23 0/1to1/1 1/1to1/0 -gneE22"/>
    </vehicle>
    <vehicle id="237" depart="474.00">
        <route edges="gneE22 1/0to1/1 1/1to1/2 1/2to2/2"/>
    </vehicle>
    <vehicle id="239" depart="478.00">
        <route edges="2/2to2/1 2/1to1/1 1/1to0/1 0/1to0/2 gneE7"/>
    </vehicle>
    <vehicle id="241" depart="482.00">
        <route edges="gneE19 1/2to1/1 1/1to1/0 1/0to0/0 gneE13"/>
    </vehicle>
    <vehicle id="242" depart="484.00">
        <route edges="-gneE14 0/0to0/1 0/1to1/1 1/1to2/1 -gneE20"/>
    </vehicle>
    <vehicle id="243" depart="486.00">
        <route edges="-gneE12 2/0to1/0 1/0to0/0 0/0to0/1 0/1to0/2"/>
    </vehicle>
    <vehicle id="244" depart="488.00">
        <route edges="-gneE11 2/0to2/1 2/1to2/2 gneE9"/>
    </vehicle>
    <vehicle id="245" depart="490.00">
        <route edges="gneE23 0/1to0/0 gneE14"/>
    </vehicle>
    <vehicle id="248" depart="496.00">
        <route edges="gneE23 0/1to1/1 1/1to2/1 2/1to2/0 2/0to1/0 1/0to1/1 1/1to1/2 -gneE19"/>
    </vehicle>
    <vehicle id="249" depart="498.00">
        <route edges="-gneE7 0/2to0/1 0/1to0/0 gneE14"/>
    </vehicle>
    <vehicle id="253" depart="506.00">
        <route edges="gneE19 1/2to1/1 1/1to0/1 -gneE23"/>
    </vehicle>
    <vehicle id="254" depart="508.00">
        <route edges="gneE23 0/1to1/1 1/1to1/0 1/0to0/0 0/0to0/1 0/1to0/2 gneE7"/>
    </vehicle>
    <vehicle id="255" depart="510.00">
        <route edges="gneE22 1/0to1/1 1/1to1/2 -gneE19"/>
    </vehicle>
    <vehicle id="258" depart="516.00">
        <route edges="gneE22 1/0to1/1 1/1to2/1 -gneE20"/>
    </vehicle>
    <vehicle id="259" depart="518.00">
        <route edges="gneE23 0/1to1/1 1/1to2/1 2/1to2/0 2/0to1/0 1/0to1/1 1/1to1/2 -gneE19"/>
    </vehicle>
    <vehicle id="260" depart="520.00">
        <route edges="-gneE13 0/0to1/0 1/0to2/0 gneE11"/>
    </vehicle>
    <vehicle id="263" depart="526.00">
        <route edges="gneE22 1/0to1/1 1/1to1/2 1/2to2/2 gneE9"/>
    </vehicle>
    <vehicle id="264" depart="528.00">
        <route edges="-gneE8 2/2to1/2 1/2to0/2 gneE5"/>
    </vehicle>
    <vehicle id="265" depart="530.00">
        <route edges="-gneE12 2/0to1/0 1/0to0/0 0/0to0/1 0/1to0/2 0/2to1/2"/>
    </vehicle>
    <vehicle id="267" depart="534.00">
        <route edges="-gneE12 2/0to1/0 1/0to0/0 gneE13"/>
    </vehicle>
    <vehicle id="268" depart="536.00">
        <route edges="gneE23 0/1to1/1 1/1to2/1 2/1to2/0 gneE11"/>
    </vehicle>
    <vehicle id="269" depart="538.00">
        <route edges="gneE19 1/2to1/1 1/1to0/1 0/1to0/2 0/2to1/2 1/2to2/2 2/2to2/1 2/1to2/0 gneE11"/>
    </vehicle>
    <vehicle id="270" depart="540.00">
        <route edges="-gneE11 2/0to2/1 2/1to2/2"/>
    </vehicle>
    <vehicle id="271" depart="542.00">
        <route edges="gneE19 1/2to1/1 1/1to0/1 0/1to0/2 0/2to1/2 1/2to2/2 2/2to2/1 2/1to2/0 gneE11"/>
    </vehicle>
    <vehicle id="272" depart="544.00">
        <route edges="gneE19 1/2to1/1 1/1to0/1 0/1to0/2 0/2to1/2 1/2to2/2 2/2to2/1 2/1to2/0 gneE11"/>
    </vehicle>
    <vehicle id="274" depart="548.00">
        <route edges="-gneE5 0/2to0/1 0/1to0/0 gneE13"/>
    </vehicle>
    <vehicle id="275" depart="550.00">
        <route edges="-gneE9 2/2to1/2 1/2to0/2 gneE5"/>
    </vehicle>
    <vehicle id="276" depart="552.00">
        <route edges="gneE19 1/2to1/1 1/1to1/0 -gneE22"/>
    </vehicle>
    <vehicle id="277" depart="554.00">
        <route edges="gneE19 1/2to1/1 1/1to1/0 1/0to0/0 gneE13"/>
    </vehicle>
    <vehicle id="278" depart="556.00">
        <route edges="gneE22 1/0to1/1 1/1to1/2 1/2to2/2 gneE9"/>
    </vehicle>
    <vehicle id="279" depart="558.00">
        <route edges="gneE22 1/0to1/1 1/1to2/1 2/1to2/0 2/0to1/0 1/0to0/0 0/0to0/1 0/1to0/2 gneE7"/>
    </vehicle>
    <vehicle id="281" depart="562.00">
        <route edges="-gneE5 0/2to1/2 1/2to2/2 2/2to2/1 2/1to2/0 gneE11"/>
    </vehicle>
    <vehicle id="282" depart="564.00">
        <route edges="-gneE9 2/2to1/2 1/2to0/2 gneE5"/>
    </vehicle>
    <vehicle id="283" depart="566.00">
        <route edges="-gneE9 2/2to1/2 1/2to0/2 gneE7"/>
    </vehicle>
    <vehicle id="284" depart="568.00">
        <route edges="gneE23 0/1to1/1 1/1to2/1 -gneE20"/>
    </vehicle>
    <vehicle id="285" depart="570.00">
        <route edges="-gneE9 2/2to1/2 1/2to0/2 gneE7"/>
    </vehicle>
    <vehicle id="286" depart="572.00">
        <route edges="gneE19 1/2to1/1 1/1to0/1 -gneE23"/>
    </vehicle>
    <vehicle id="287" depart="574.00">
        <route edges="-gneE8 2/2to1/2 1/2to0/2 gneE5"/>
    </vehicle>
    <vehicle id="288" depart="576.00">
        <route edges="-gneE7 0/2to0/1 0/1to0/0 gneE14"/>
    </vehicle>
    <vehicle id="289" depart="578.00">
        <route edges="gneE20 2/1to2/2 gneE8"/>
    </vehicle>
    <vehicle id="290" depart="580.00">
        <route edges="gneE22 1/0to1/1 1/1to2/1 2/1to2/0 2/0to1/0 1/0to0/0 gneE13"/>
    </vehicle>
    <vehicle id="291" depart="582.00">
        <route edges="gneE23 0/1to1/1 1/1to1/0 1/0to0/0 0/0to0/1 0/1to0/2 0/2to1/2 1/2to2/2 gneE9"/>
    </vehicle>
    <vehicle id="293" depart="586.00">
        <route edges="-gneE11 2/0to2/1 2/1to2/2 gneE9"/>
    </vehicle>
    <vehicle id="294" depart="588.00">
        <route edges="gneE19 1/2to1/1 1/1to1/0"/>
    </vehicle>
    <vehicle id="295" depart="590.00">
        <route edges="gneE20 2/1to1/1 1/1to0/1 -gneE23"/>
    </vehicle>
    <vehicle id="296" depart="592.00">
        <route edges="-gneE14 0/0to0/1 0/1to0/2 0/2to1/2 1/2to1/1 1/1to0/1"/>
    </vehicle>
    <vehicle id="297" depart="594.00">
        <route edges="0/1to1/1 1/1to2/1"/>
    </vehicle>
    <vehicle id="298" depart="596.00">
        <route edges="gneE20 2/1to1/1 1/1to0/1 0/1to0/2 0/2to1/2 1/2to1/1 1/1to1/0 -gneE22"/>
    </vehicle>
    <vehicle id="299" depart="598.00">
        <route edges="gneE20 2/1to1/1 1/1to0/1 0/1to0/2 0/2to1/2 1/2to1/1 1/1to1/0 -gneE22"/>
    </vehicle>
    <vehicle id="300" depart="600.00">
        <route edges="gneE20 2/1to1/1 1/1to1/2 -gneE19"/>
    </vehicle>
    <vehicle id="304" depart="608.00">
        <route edges="-gneE12 2/0to1/0 1/0to0/0 0/0to0/1 0/1to0/2 0/2to1/2 1/2to1/1 1/1to0/1 -gneE23"/>
    </vehicle>
    <vehicle id="306" depart="612.00">
        <route edges="2/0to2/1 2/1to2/2 gneE8"/>
    </vehicle>
    <vehicle id="307" depart="614.00">
        <route edges="2/0to2/1 2/1to2/2 gneE9"/>
    </vehicle>
    <vehicle id="308" depart="616.00">
        <route edges="gneE20 2/1to1/1 1/1to0/1 0/1to0/2 gneE7"/>
    </vehicle>
    <vehicle id="310" depart="620.00">
        <route edges="-gneE8 2/2to2/1 2/1to1/1 1/1to0/1 0/1to0/2 0/2to1/2 1/2to1/1 1/1to1/0"/>
    </vehicle>
    <vehicle id="314" depart="628.00">
        <route edges="-gneE14 0/0to0/1 0/1to0/2 0/2to1/2 1/2to2/2 gneE9"/>
    </vehicle>
    <vehicle id="315" depart="630.00">
        <route edges="-gneE14 0/0to0/1 0/1to1/1 1/1to2/1 -gneE20"/>
    </vehicle>
    <vehicle id="316" depart="632.00">
        <route edges="-gneE5 0/2to1/2 1/2to2/2 2/2to2/1 2/1to1/1 1/1to1/2 -gneE19"/>
    </vehicle>
    <vehicle id="320" depart="640.00">
        <route edges="-gneE11 2/0to2/1 -gneE20"/>
    </vehicle>
    <vehicle id="321" depart="642.00">
        <route edges="gneE22 1/0to1/1 1/1to1/2 -gneE19"/>
    </vehicle>
    <vehicle id="322" depart="644.00">
        <route edges="2/0to1/0 1/0to0/0 0/0to0/1 0/1to0/2 0/2to1/2 1/2to1/1 1/1to0/1 -gneE23"/>
    </vehicle>
    <vehicle id="323" depart="646.00">
        <route edges="gneE23 0/1to1/1 1/1to2/1 2/1to2/0 gneE11"/>
    </vehicle>
    <vehicle id="326" depart="652.00">
        <route edges="gneE23 0/1to1/1 1/1to1/0 1/0to0/0 0/0to0/1 0/1to0/2 0/2to1/2 1/2to2/2 gneE9"/>
    </vehicle>
    <vehicle id="329" depart="658.00">
        <route edges="-gneE12 2/0to1/0 1/0to0/0 0/0to0/1 0/1to0/2 0/2to1/2 1/2to1/1 1/1to0/1"/>
    </vehicle>
    <vehicle id="332" depart="664.00">
        <route edges="-gneE14 0/0to0/1 0/1to0/2 0/2to1/2 1/2to2/2 gneE9"/>
    </vehicle>
    <vehicle id="333" depart="666.00">
        <route edges="1/1to1/2 1/2to2/2 2/2to2/1 2/1to1/1 1/1to0/1 0/1to0/2 gneE7"/>
    </vehicle>
    <vehicle id="338" depart="676.00">
        <route edges="-gneE7 0/2to0/1 0/1to0/0 gneE14"/>
    </vehicle>
    <vehicle id="339" depart="678.00">
        <route edges="gneE23 0/1to1/1 1/1to1/0 -gneE22"/>
    </vehicle>
    <vehicle id="340" depart="680.00">
        <route edges="-gneE11 2/0to2/1 2/1to2/2 gneE9"/>
    </vehicle>
    <vehicle id="341" depart="682.00">
        <route edges="-gneE8 2/2to2/1 2/1to1/1 1/1to0/1 0/1to0/2 0/2to1/2 1/2to1/1 1/1to1/0 -gneE22"/>
    </vehicle>
    <vehicle id="342" depart="684.00">
        <route edges="-gneE12 2/0to1/0 1/0to1/1 1/1to1/2 -gneE19"/>
    </vehicle>
    <vehicle id="343" depart="686.00">
        <route edges="-gneE11 2/0to2/1 2/1to2/2 gneE9"/>
    </vehicle>
    <vehicle id="344" depart="688.00">
        <route edges="gneE20 2/1to1/1"/>
    </vehicle>
    <vehicle id="345" depart="690.00">
        <route edges="gneE20 2/1to1/1 1/1to1/2 1/2to2/2 2/2to2/1 2/1to2/0 2/0to1/0"/>
    </vehicle>
    <vehicle id="346" depart="692.00">
        <route edges="1/1to0/1 0/1to0/2 gneE7"/>
    </vehicle>
    <vehicle id="347" depart="694.00">
        <route edges="-gneE8 2/2to2/1 2/1to2/0 2/0to1/0 1/0to0/0 0/0to0/1"/>
    </vehicle>
    <vehicle id="348" depart="696.00">
        <route edges="-gneE5 0/2to1/2 1/2to1/1 1/1to1/0 -gneE22"/>
    </vehicle>
    <vehicle id="349" depart="698.00">
        <route edges="gneE20 2/1to1/1 1/1to0/1 0/1to0/2 gneE7"/>
    </vehicle>
    <vehicle id="352" depart="704.00">
        <route edges="gneE20 2/1to1/1 1/1to0/1 0/1to0/2 0/2to1/2 1/2to1/1 1/1to1/0 -gneE22"/>
    </vehicle>
    <vehicle id="353" depart="706.00">
        <route edges="-gneE5 0/2to1/2 1/2to1/1 1/1to1/0 -gneE22"/>
    </vehicle>
    <vehicle id="354" depart="708.00">
        <route edges="-gneE14 0/0to0/1 0/1to0/2 0/2to1/2 1/2to1/1 1/1to0/1 -gneE23"/>
    </vehicle>
    <vehicle id="355" depart="710.00">
        <route edges="-gneE9 2/2to1/2 1/2to0/2 gneE7"/>
    </vehicle>
    <vehicle id="360" depart="720.00">
        <route edges="-gneE8 2/2to1/2 1/2to0/2 gneE7"/>
    </vehicle>
    <vehicle id="362" depart="724.00">
        <route edges="gneE23 0/1to1/1 1/1to1/0 -gneE22"/>
    </vehicle>
    <vehicle id="366" depart="732.00">
        <route edges="0/2to1/2 1/2to1/1 1/1to1/0 1/0to0/0 gneE13"/>
    </vehicle>
    <vehicle id="369" depart="738.00">
        <route edges="2/0to2/1 2/1to2/2 gneE9"/>
    </vehicle>
    <vehicle id="371" depart="742.00">
        <route edges="1/0to1/1 1/1to1/2"/>
    </vehicle>
    <vehicle id="373" depart="746.00">
        <route edges="-gneE14 0/0to0/1 0/1to1/1 1/1to2/1 -gneE20"/>
    </vehicle>
    <vehicle id="374" depart="748.00">
        <route edges="-gneE8 2/2to1/2 1/2to0/2 gneE7"/>
    </vehicle>
    <vehicle id="376" depart="752.00">
        <route edges="gneE22 1/0to2/0 gneE12"/>
    </vehicle>
    <vehicle id="379" depart="758.00">
        <route edges="-gneE12 2/0to2/1 2/1to2/2 gneE9"/>
    </vehicle>
    <vehicle id="380" depart="760.00">
        <route edges="-gneE8 2/2to2/1 2/1to1/1 1/1to0/1 0/1to0/2 0/2to1/2 1/2to1/1 1/1to1/0 -gneE22"/>
    </vehicle>
    <vehicle id="381" depart="762.00">
        <route edges="gneE23 0/1to1/1 1/1to1/0 1/0to0/0 0/0to0/1 0/1to0/2 0/2to1/2 1/2to2/2 2/2to2/1"/>
    </vehicle>
    <vehicle id="382" depart="764.00">
        <route edges="-gneE7 0/2to0/1 -gneE23"/>
    </vehicle>
    <vehicle id="385" depart="770.00">
        <route edges="-gneE5 0/2to1/2 1/2to1/1 1/1to1/0 -gneE22"/>
    </vehicle>
    <vehicle id="387" depart="774.00">
        <route edges="gneE19 1/2to1/1 1/1to0/1 -gneE23"/>
    </vehicle>
    <vehicle id="388" depart="776.00">
        <route edges="-gneE14 0/0to0/1 0/1to0/2 0/2to1/2 1/2to1/1 1/1to0/1 -gneE23"/>
    </vehicle>
    <vehicle id="389" depart="778.00">
        <route edges="gneE22 1/0to1/1 1/1to2/1 2/1to2/0 2/0to1/0 1/0to0/0 gneE13"/>
    </vehicle>
    <vehicle id="390" depart="780.00">
        <route edges="gneE23 0/1to1/1 1/1to2/1 2/1to2/0 2/0to1/0 1/0to1/1 1/1to1/2 -gneE19"/>
    </vehicle>
    <vehicle id="392" depart="784.00">
        <route edges="-gneE11 2/0to2/1 2/1to2/2 gneE8"/>
    </vehicle>
    <vehicle id="393" depart="786.00">
        <route edges="0/1to1/1 1/1to1/0 1/0to0/0 0/0to0/1 0/1to0/2 0/2to1/2 1/2to2/2 gneE9"/>
    </vehicle>
    <vehicle id="394" depart="788.00">
        <route edges="gneE22 1/0to1/1 1/1to1/2 -gneE19"/>
    </vehicle>
    <vehicle id="395" depart="790.00">
        <route edges="gneE23 0/1to1/1 1/1to1/0 1/0to0/0 0/0to0/1 0/1to0/2 gneE7"/>
    </vehicle>
    <vehicle id="396" depart="792.00">
        <route edges="-gneE14 0/0to0/1 0/1to0/2 gneE7"/>
    </vehicle>
    <vehicle id="397" depart="794.00">
        <route edges="gneE23 0/1to1/1 1/1to1/0 1/0to0/0 0/0to0/1 0/1to0/2 gneE7"/>
    </vehicle>
    <vehicle id="401" depart="802.00">
        <route edges="gneE19 1/2to1/1 1/1to0/1 -gneE23"/>
    </vehicle>
    <vehicle id="402" depart="804.00">
        <route edges="-gneE9 2/2to1/2 -gneE19"/>
    </vehicle>
    <vehicle id="406" depart="812.00">
        <route edges="-gneE7 0/2to0/1 -gneE23"/>
    </vehicle>
    <vehicle id="408" depart="816.00">
        <route edges="-gneE14 0/0to0/1 0/1to0/2 0/2to1/2 1/2to1/1 1/1to0/1"/>
    </vehicle>
    <vehicle id="411" depart="822.00">
        <route edges="-gneE5 0/2to1/2 1/2to2/2 2/2to2/1 2/1to1/1 1/1to1/2 -gneE19"/>
    </vehicle>
    <vehicle id="412" depart="824.00">
        <route edges="gneE20 2/1to1/1 1/1to0/1 0/1to0/2 0/2to1/2 1/2to1/1 1/1to1/0 1/0to0/0 gneE13"/>
    </vehicle>
    <vehicle id="413" depart="826.00">