<?xml version="1.0" encoding="UTF-8"?>

<!-- generated on Mon Nov 19 18:11:22 2018 by SUMO duarouter Version 0.30.0
<?xml version="1.0" encoding="UTF-8"?>

<configuration xmlns:xsi="http://www.w3.org/2001/XMLSchema-instance" xsi:noNamespaceSchemaLocation="http://sumo.dlr.de/xsd/duarouterConfiguration.xsd">

    <input>
        <net-file value="manhattan_test/manhattan_test.net.xml"/>
        <route-files value="trips.trips.xml"/>
    </input>

    <output>
        <output-file value="manhattan_test/route/manhattan_test-2.0-0.rou.xml"/>
    </output>

    <processing>
        <ignore-errors value="true"/>
    </processing>

    <time>
        <begin value="0.0"/>
        <end value="5400.0"/>
    </time>

    <report>
        <no-warnings value="true"/>
        <no-step-log value="true"/>
    </report>

</configuration>
-->

<routes xmlns:xsi="http://www.w3.org/2001/XMLSchema-instance" xsi:noNamespaceSchemaLocation="http://sumo.dlr.de/xsd/routes_file.xsd">
    <vehicle id="0" depart="0.00">
        <route edges="gneE23 0/1to1/1 1/1to2/1 2/1to2/0 2/0to1/0 1/0to1/1 1/1to1/2 -gneE19"/>
    </vehicle>
    <vehicle id="1" depart="2.00">
        <route edges="-gneE8 2/2to2/1 2/1to2/0 2/0to1/0 1/0to0/0 gneE13"/>
    </vehicle>
    <vehicle id="4" depart="8.00">
        <route edges="-gneE8 2/2to2/1 2/1to2/0 2/0to1/0 1/0to0/0 gneE13"/>
    </vehicle>
    <vehicle id="5" depart="10.00">
        <route edges="gneE20 2/1to1/1 1/1to0/1 -gneE23"/>
    </vehicle>
    <vehicle id="9" depart="18.00">
        <route edges="gneE20 2/1to1/1 1/1to0/1 0/1to0/2 0/2to1/2 1/2to1/1 1/1to1/0 1/0to0/0 gneE13"/>
    </vehicle>
    <vehicle id="12" depart="24.00">
        <route edges="-gneE8 2/2to2/1 2/1to1/1 1/1to0/1 -gneE23"/>
    </vehicle>
    <vehicle id="13" depart="26.00">
        <route edges="-gneE14 0/0to0/1 0/1to0/2 0/2to1/2 1/2to1/1 1/1to0/1 -gneE23"/>
    </vehicle>
    <vehicle id="16" depart="32.00">
        <route edges="-gneE12 2/0to1/0 1/0to0/0 0/0to0/1 0/1to1/1 1/1to1/0 -gneE22"/>
    </vehicle>
    <vehicle id="18" depart="36.00">
        <route edges="-gneE12 2/0to1/0 1/0to0/0 gneE13"/>
    </vehicle>
    <vehicle id="19" depart="38.00">
        <route edges="-gneE12 2/0to2/1 2/1to2/2 gneE8"/>
    </vehicle>
    <vehicle id="20" depart="40.00">
        <route edges="-gneE13 0/0to1/0 1/0to2/0 gneE12"/>
    </vehicle>
    <vehicle id="22" depart="44.00">
        <route edges="-gneE7 0/2to0/1 -gneE23"/>
    </vehicle>
    <vehicle id="23" depart="46.00">
        <route edges="-gneE9 2/2to1/2 -gneE19"/>
    </vehicle>
    <vehicle id="26" depart="52.00">
        <route edges="gneE20 2/1to1/1 1/1to0/1 0/1to0/2 0/2to1/2 1/2to1/1 1/1to1/0 -gneE22"/>
    </vehicle>
    <vehicle id="27" depart="54.00">
        <route edges="-gneE5 0/2to0/1 0/1to0/0 gneE13"/>
    </vehicle>
    <vehicle id="31" depart="62.00">
        <route edges="-gneE8 2/2to2/1 2/1to1/1 1/1to0/1 0/1to0/2 0/2to1/2 1/2to1/1 1/1to1/0 -gneE22"/>
    </vehicle>
    <vehicle id="34" depart="68.00">
        <route edges="gneE20 2/1to1/1"/>
    </vehicle>
    <vehicle id="36" depart="72.00">
        <route edges="gneE20 2/1to1/1 1/1to0/1 0/1to0/2 gneE7"/>
    </vehicle>
    <vehicle id="38" depart="76.00">
        <route edges="gneE20 2/1to1/1 1/1to1/2 -gneE19"/>
    </vehicle>
    <vehicle id="41" depart="82.00">
        <route edges="-gneE8 2/2to1/2 1/2to0/2 gneE5"/>
    </vehicle>
    <vehicle id="42" depart="84.00">
        <route edges="gneE19 1/2to1/1 1/1to0/1 0/1to0/2 0/2to1/2 1/2to2/2 gneE9"/>
    </vehicle>
    <vehicle id="43" depart="86.00">
        <route edges="gneE19 1/2to1/1 1/1to0/1 0/1to0/2 0/2to1/2 1/2to2/2 2/2to2/1"/>
    </vehicle>
    <vehicle id="44" depart="88.00">
        <route edges="-gneE14 0/0to0/1 0/1to1/1 1/1to2/1 -gneE20"/>
    </vehicle>
    <vehicle id="45" depart="90.00">
        <route edges="gneE23 0/1to1/1 1/1to1/0 1/0to0/0 0/0to0/1 0/1to0/2 gneE7"/>
    </vehicle>
    <vehicle id="46" depart="92.00">
        <route edges="-gneE14 0/0to0/1 0/1to1/1 1/1to2/1 2/1to2/0"/>
    </vehicle>
    <vehicle id="47" depart="94.00">
        <route edges="-gneE12 2/0to1/0 1/0to1/1 1/1to1/2 -gneE19"/>
    </vehicle>
    <vehicle id="49" depart="98.00">
        <route edges="-gneE8 2/2to2/1 2/1to1/1 1/1to0/1 -gneE23"/>
    </vehicle>
    <vehicle id="53" depart="106.00">
        <route edges="-gneE8 2/2to2/1 2/1to2/0 gneE11"/>
    </vehicle>
    <vehicle id="55" depart="110.00">
        <route edges="-gneE8 2/2to2/1 2/1to1/1 1/1to0/1 0/1to0/2 0/2to1/2 1/2to1/1 1/1to1/0"/>
    </vehicle>
    <vehicle id="58" depart="116.00">
        <route edges="gneE23 0/1to1/1 1/1to1/0 -gneE22"/>
    </vehicle>
    <vehicle id="60" depart="120.00">
        <route edges="gneE20 2/1to1/1 1/1to0/1 0/1to0/2 gneE7"/>
    </vehicle>
    <vehicle id="61" depart="122.00">
        <route edges="-gneE14 0/0to0/1 0/1to0/2 0/2to1/2 1/2to1/1 1/1to0/1 -gneE23"/>
    </vehicle>
    <vehicle id="63" depart="126.00">
        <route edges="0/0to0/1 0/1to0/2 0/2to1/2 1/2to2/2 gneE9"/>
    </vehicle>
    <vehicle id="64" depart="128.00">
        <route edges="gneE22 1/0to1/1 1/1to2/1 2/1to2/0 2/0to1/0 1/0to0/0 0/0to0/1 0/1to0/2"/>
    </vehicle>
    <vehicle id="66" depart="132.00">
        <route edges="gneE20 2/1to1/1 1/1to0/1 0/1to0/2 0/2to1/2 1/2to1/1 1/1to1/0 1/0to0/0 gneE13"/>
    </vehicle>
    <vehicle id="67" depart="134.00">
        <route edges="gneE20 2/1to1/1 1/1to1/2 -gneE19"/>
    </vehicle>
    <vehicle id="68" depart="136.00">
        <route edges="1/1to1/2 1/2to2/2 2/2to2/1 2/1to1/1 1/1to0/1 0/1to0/2 0/2to1/2 1/2to1/1 1/1to1/0 -gneE22"/>
    </vehicle>
    <vehicle id="70" depart="140.00">
        <route edges="gneE23 0/1to1/1 1/1to1/0 -gneE22"/>
    </vehicle>
    <vehicle id="71" depart="142.00">
        <route edges="gneE22 1/0to1/1 1/1to1/2 1/2to2/2 2/2to2/1"/>
    </vehicle>
    <vehicle id="72" depart="144.00">
        <route edges="-gneE13 0/0to1/0 1/0to2/0 gneE11"/>
    </vehicle>
    <vehicle id="75" depart="150.00">
        <route edges="-gneE9 2/2to1/2 1/2to0/2 gneE7"/>
    </vehicle>
    <vehicle id="76" depart="152.00">
        <route edges="-gneE8 2/2to2/1 2/1to2/0 gneE11"/>
    </vehicle>
    <vehicle id="79" depart="158.00">
        <route edges="-gneE12 2/0to1/0 1/0to1/1 1/1to1/2 1/2to2/2"/>
    </vehicle>
    <vehicle id="81" depart="162.00">
        <route edges="2/1to2/0 2/0to1/0 1/0to0/0 0/0to0/1 0/1to0/2 0/2to1/2 1/2to1/1 1/1to0/1 -gneE23"/>
    </vehicle>
    <vehicle id="82" depart="164.00">
        <route edges="gneE20 2/1to2/2 gneE8"/>
    </vehicle>
    <vehicle id="83" depart="166.00">
        <route edges="-gneE8 2/2to1/2 1/2to0/2 gneE7"/>
    </vehicle>
    <vehicle id="84" depart="168.00">
        <route edges="gneE19 1/2to0/2 gneE5"/>
    </vehicle>
    <vehicle id="85" depart="170.00">
        <route edges="-gneE8 2/2to2/1 2/1to2/0 2/0to1/0 1/0to0/0 gneE13"/>
    </vehicle>
    <vehicle id="86" depart="172.00">
        <route edges="gneE20 2/1to1/1 1/1to0/1 0/1to0/2 gneE7"/>
    </vehicle>
    <vehicle id="87" depart="174.00">
        <route edges="0/0to0/1 0/1to1/1 1/1to2/1 2/1to2/0 gneE11"/>
    </vehicle>
    <vehicle id="89" depart="178.00">
        <route edges="gneE19 1/2to1/1 1/1to0/1 0/1to0/2 0/2to1/2 1/2to2/2 gneE9"/>
    </vehicle>
    <vehicle id="94" depart="188.00">
        <route edges="-gneE11 2/0to2/1 -gneE20"/>
    </vehicle>
    <vehicle id="97" depart="194.00">
        <route edges="-gneE14 0/0to1/0 1/0to2/0 gneE11"/>
    </vehicle>
    <vehicle id="99" depart="198.00">
        <route edges="gneE19 1/2to1/1 1/1to0/1 0/1to0/2 0/2to1/2 1/2to2/2 2/2to2/1 2/1to2/0 gneE11"/>
    </vehicle>
    <vehicle id="100" depart="200.00">
        <route edges="-gneE13 0/0to1/0 1/0to2/0 gneE11"/>
    </vehicle>
    <vehicle id="101" depart="202.00">
        <route edges="-gneE12 2/0to1/0 1/0to0/0 0/0to0/1 0/1to1/1 1/1to1/0 -gneE22"/>
    </vehicle>
    <vehicle id="102" depart="204.00">
        <route edges="-gneE5 0/2to0/1 0/1to0/0 gneE14"/>
    </vehicle>
    <vehicle id="104" depart="208.00">
        <route edges="-gneE14 0/0to1/0 1/0to2/0 gneE12"/>
    </vehicle>
    <vehicle id="108" depart="216.00">
        <route edges="-gneE8 2/2to1/2 1/2to0/2 gneE7"/>
    </vehicle>
    <vehicle id="111" depart="222.00">
        <route edges="-gneE5 0/2to0/1 0/1to0/0 gneE14"/>
    </vehicle>
    <vehicle id="112" depart="224.00">
        <route edges="gneE19 1/2to1/1 1/1to1/0 -gneE22"/>
    </vehicle>
    <vehicle id="113" depart="226.00">
        <route edges="1/0to0/0 0/0to0/1 0/1to0/2 0/2to1/2 1/2to2/2 gneE9"/>
    </vehicle>
    <vehicle id="114" depart="228.00">
        <route edges="-gneE8 2/2to2/1"/>
    </vehicle>
    <vehicle id="117" depart="234.00">
        <route edges="1/1to1/0 1/0to0/0 0/0to0/1 0/1to0/2 0/2to1/2 1/2to1/1 1/1to0/1 -gneE23"/>
    </vehicle>
    <vehicle id="120" depart="240.00">
        <route edges="gneE23 0/1to1/1 1/1to2/1 2/1to2/0 2/0to1/0 1/0to1/1 1/1to1/2 -gneE19"/>
    </vehicle>
    <vehicle id="121" depart="242.00">
        <route edges="gneE20 2/1to1/1 1/1to0/1 0/1to0/2 0/2to1/2 1/2to1/1 1/1to1/0 1/0to0/0 gneE13"/>
    </vehicle>
    <vehicle id="122" depart="244.00">
        <route edges="gneE19 1/2to0/2 gneE5"/>
    </vehicle>
    <vehicle id="123" depart="246.00">
        <route edges="1/1to1/0 1/0to0/0 gneE13"/>
    </vehicle>
    <vehicle id="127" depart="254.00">
        <route edges="gneE22 1/0to2/0 gneE12"/>
    </vehicle>
    <vehicle id="130" depart="260.00">
        <route edges="-gneE7 0/2to0/1 -gneE23"/>
    </vehicle>
    <vehicle id="131" depart="262.00">
        <route edges="-gneE13 0/0to1/0 1/0to2/0 gneE11"/>
    </vehicle>
    <vehicle id="134" depart="268.00">
        <route edges="-gneE8 2/2to1/2 1/2to0/2 gneE7"/>
    </vehicle>
    <vehicle id="135" depart="270.00">
        <route edges="-gneE5 0/2to1/2 1/2to2/2 2/2to2/1 2/1to1/1 1/1to1/2 -gneE19"/>
    </vehicle>
    <vehicle id="138" depart="276.00">
        <route edges="-gneE8 2/2to2/1 2/1to2/0 2/0to1/0 1/0to0/0 0/0to0/1"/>
    </vehicle>
    <vehicle id="140" depart="280.00">
        <route edges="-gneE14 0/0to1/0 1/0to2/0 gneE11"/>
    </vehicle>
    <vehicle id="141" depart="282.00">
        <route edges="-gneE5 0/2to1/2 1/2to2/2 2/2to2/1 2/1to2/0 2/0to1/0 1/0to1/1 1/1to2/1 -gneE20"/>
    </vehicle>
    <vehicle id="143" depart="286.00">
        <route edges="-gneE9 2/2to1/2 1/2to0/2"/>
    </vehicle>
    <vehicle id="147" depart="294.00">
        <route edges="0/1to0/2 0/2to1/2 1/2to2/2 2/2to2/1 2/1to2/0 gneE11"/>
    </vehicle>
    <vehicle id="149" depart="298.00">
        <route edges="gneE22 1/0to1/1 1/1to2/1 2/1to2/0 2/0to1/0 1/0to0/0 0/0to0/1 0/1to0/2 gneE7"/>
    </vehicle>
    <vehicle id="150" depart="300.00">
        <route edges="gneE19 1/2to1/1 1/1to1/0 -gneE22"/>
    </vehicle>
    <vehicle id="151" depart="302.00">
        <route edges="0/1to0/2 0/2to1/2 1/2to2/2 2/2to2/1 2/1to1/1 1/1to1/2 -gneE19"/>
    </vehicle>
    <vehicle id="152" depart="304.00">
        <route edges="2/0to2/1 2/1to2/2 gneE9"/>
    </vehicle>
    <vehicle id="153" depart="306.00">
        <route edges="-gneE13 0/0to1/0 1/0to2/0 gneE11"/>
    </vehicle>
    <vehicle id="155" depart="310.00">
        <route edges="-gneE12 2/0to1/0 1/0to0/0 gneE13"/>
    </vehicle>
    <vehicle id="156" depart="312.00">
        <route edges="-gneE13 0/0to1/0 -gneE22"/>
    </vehicle>
    <vehicle id="157" depart="314.00">
        <route edges="-gneE12 2/0to1/0 1/0to0/0 0/0to0/1 0/1to1/1 1/1to1/0 -gneE22"/>
    </vehicle>
    <vehicle id="158" depart="316.00">
        <route edges="-gneE8 2/2to2/1 2/1to2/0 2/0to1/0 1/0to1/1 1/1to2/1 -gneE20"/>
    </vehicle>
    <vehicle id="160" depart="320.00">
        <route edges="2/2to1/2 1/2to0/2 gneE7"/>
    </vehicle>
    <vehicle id="162" depart="324.00">
        <route edges="gneE22 1/0to1/1 1/1to2/1 2/1to2/0 2/0to1/0 1/0to0/0 0/0to0/1 0/1to0/2 gneE7"/>
    </vehicle>
    <vehicle id="163" depart="326.00">
        <route edges="gneE19 1/2to1/1 1/1to1/0 -gneE22"/>
    </vehicle>
    <vehicle id="164" depart="328.00">
        <route edges="gneE19 1/2to1/1 1/1to0/1 0/1to0/2 0/2to1/2 1/2to2/2 2/2to2/1 2/1to2/0 gneE11"/>
    </vehicle>
    <vehicle id="166" depart="332.00">
        <route edges="-gneE14 0/0to1/0 1/0to2/0 gneE12"/>
    </vehicle>
    <vehicle id="167" depart="334.00">
        <route edges="gneE23 0/1to1/1 1/1to1/0 1/0to0/0 0/0to0/1 0/1to0/2 gneE7"/>
    </vehicle>
    <vehicle id="171" depart="342.00">
        <route edges="-gneE14 0/0to0/1 0/1to0/2 0/2to1/2 1/2to2/2 gneE9"/>
    </vehicle>
    <vehicle id="172" depart="344.00">
        <route edges="1/0to0/0 0/0to0/1 0/1to0/2 0/2to1/2 1/2to2/2 2/2to2/1 2/1to1/1 1/1to1/2"/>
    </vehicle>
    <vehicle id="176" depart="352.00">
        <route edges="-gneE5 0/2to1/2 1/2to2/2 2/2to2/1 2/1to1/1 1/1to1/2 -gneE19"/>
    </vehicle>
    <vehicle id="177" depart="354.00">
        <route edges="-gneE11 2/0to2/1 -gneE20"/>
    </vehicle>
    <vehicle id="179" depart="358.00">
        <route edges="-gneE13 0/0to1/0"/>
    </vehicle>
    <vehicle id="180" depart="360.00">
        <route edges="gneE20 2/1to1/1 1/1to0/1 -gneE23"/>
    </vehicle>
    <vehicle id="181" depart="362.00">
        <route edges="gneE23 0/1to1/1 1/1to1/0 1/0to0/0 0/0to0/1 0/1to0/2 0/2to1/2 1/2to2/2 gneE9"/>
    </vehicle>
    <vehicle id="182" depart="364.00">
        <route edges="gneE20 2/1to2/2 gneE8"/>
    </vehicle>
    <vehicle id="183" depart="366.00">
        <route edges="gneE20 2/1to1/1 1/1to0/1 0/1to0/2 0/2to1/2 1/2to1/1 1/1to1/0 1/0to0/0 gneE13"/>
    </vehicle>
    <vehicle id="184" depart="368.00">
        <route edges="-gneE5 0/2to1/2 1/2to1/1 1/1to1/0 -gneE22"/>
    </vehicle>
    <vehicle id="185" depart="370.00">
        <route edges="0/0to0/1 0/1to0/2 0/2to1/2 1/2to2/2 gneE9"/>
    </vehicle>
    <vehicle id="186" depart="372.00">
        <route edges="gneE23 0/1to1/1 1/1to2/1 2/1to2/0 2/0to1/0 1/0to1/1 1/1to1/2 -gneE19"/>
    </vehicle>
    <vehicle id="187" depart="374.00">
        <route edges="-gneE12 2/0to1/0 1/0to1/1 1/1to1/2 -gneE19"/>
    </vehicle>
    <vehicle id="189" depart="378.00">
        <route edges="gneE20 2/1to1/1 1/1to0/1 -gneE23"/>
    </vehicle>
    <vehicle id="192" depart="384.00">
        <route edges="-gneE8 2/2to2/1 2/1to1/1 1/1to0/1 0/1to0/2 0/2to1/2 1/2to1/1 1/1to1/0 -gneE22"/>
    </vehicle>
    <vehicle id="193" depart="386.00">
        <route edges="-gneE14 0/0to0/1 0/1to0/2 0/2to1/2 1/2to2/2 gneE9"/>
    </vehicle>
    <vehicle id="194" depart="388.00">
        <route edges="-gneE5 0/2to1/2 1/2to2/2 2/2to2/1 2/1to1/1 1/1to1/2 -gneE19"/>
    </vehicle>
    <vehicle id="195" depart="390.00">
        <route edges="gneE20 2/1to1/1 1/1to0/1 -gneE23"/>
    </vehicle>
    <vehicle id="197" depart="394.00">
        <route edges="gneE19 1/2to0/2 gneE5"/>
    </vehicle>
    <vehicle id="199" depart="398.00">
        <route edges="-gneE14 0/0to0/1 0/1to1/1 1/1to2/1 2/1to2/0 2/0to1/0 1/0to1/1"/>
    </vehicle>
    <vehicle id="200" depart="400.00">
        <route edges="-gneE5 0/2to1/2 1/2to2/2 2/2to2/1 2/1to1/1"/>
    </vehicle>
    <vehicle id="201" depart="402.00">
        <route edges="2/1to2/0 2/0to1/0 1/0to0/0 0/0to0/1 0/1to0/2 0/2to1/2 1/2to1/1 1/1to0/1 -gneE23"/>
    </vehicle>
    <vehicle id="202" depart="404.00">
        <route edges="-gneE14 0/0to0/1 0/1to0/2 0/2to1/2 1/2to2/2 2/2to2/1 2/1to1/1 1/1to1/2 -gneE19"/>
    </vehicle>
    <vehicle id="203" depart="406.00">
        <route edges="-gneE14 0/0to0/1 0/1to0/2 gneE7"/>
    </vehicle>
    <vehicle id="204" depart="408.00">
        <route edges="-gneE14 0/0to0/1 0/1to1/1 1/1to2/1 -gneE20"/>
    </vehicle>
    <vehicle id="208" depart="416.00">
        <route edges="0/1to0/2 0/2to1/2 1/2to2/2 2/2to2/1 2/1to2/0 2/0to1/0 1/0to1/1 1/1to2/1 -gneE20"/>
    </vehicle>
    <vehicle id="210" depart="420.00">
        <route edges="-gneE14 0/0to0/1 0/1to0/2 0/2to1/2 1/2to2/2 2/2to2/1 2/1to1/1 1/1to1/2 -gneE19"/>
    </vehicle>
    <vehicle id="213" depart="426.00">
        <route edges="gneE23 0/1to1/1 1/1to2/1 2/1to2/0 2/0to1/0 1/0to1/1 1/1to1/2"/>
    </vehicle>
    <vehicle id="215" depart="430.00">
        <route edges="gneE19 1/2to1/1 1/1to0/1 0/1to0/2 0/2to1/2 1/2to2/2 2/2to2/1 2/1to2/0 gneE11"/>
    </vehicle>
    <vehicle id="217" depart="434.00">
        <route edges="-gneE12 2/0to2/1 2/1to2/2 gneE8"/>
    </vehicle>
    <vehicle id="219" depart="438.00">
        <route edges="1/2to1/1 1/1to0/1 0/1to0/2 0/2to1/2 1/2to2/2 2/2to2/1 2/1to2/0 2/0to1/0"/>
    </vehicle>
    <vehicle id="220" depart="440.00">
        <route edges="gneE23 0/1to1/1 1/1to1/0 1/0to0/0 0/0to0/1 0/1to0/2 0/2to1/2 1/2to2/2 gneE9"/>
    </vehicle>
    <vehicle id="223" depart="446.00">
        <route edges="-gneE8 2/2to2/1 2/1to1/1 1/1to0/1 0/1to0/2 0/2to1/2 1/2to1/1 1/1to1/0 -gneE22"/>
    </vehicle>
    <vehicle id="224" depart="448.00">
        <route edges="-gneE14 0/0to0/1 0/1to0/2"/>
    </vehicle>
    <vehicle id="225" depart="450.00">
        <route edges="-gneE13 0/0to1/0 1/0to2/0 gneE11"/>
    </vehicle>
    <vehicle id="227" depart="454.00">
        <route edges="gneE19 1/2to0/2 gneE5"/>
    </vehicle>
    <vehicle id="228" depart="456.00">
        <route edges="-gneE5 0/2to0/1 0/1to0/0 gneE14"/>
    </vehicle>
    <vehicle id="229" depart="458.00">
        <route edges="gneE20 2/1to1/1 1/1to1/2 1/2to2/2 2/2to2/1 2/1to2/0 gneE11"/>
    </vehicle>
    <vehicle id="230" depart="460.00">
        <route edges="gneE22 1/0to1/1 1/1to1/2"/>
    </vehicle>
    <vehicle id="231" depart="462.00">
        <route edges="-gneE12 2/0to1/0 1/0to0/0 0/0to0/1 0/1to0/2 gneE7"/>
    </vehicle>
    <vehicle id="232" depart="464.00">
        <route edges="gneE23 0/1to0/0 gneE14"/>
    </vehicle>
    <vehicle id="233" depart="466.00">
        <route edges="1/1to0/1 0/1to0/2 0/2to1/2 1/2to1/1 1/1to1/0 -gneE22"/>
    </vehicle>
    <vehicle id="234" depart="468.00">
        <route edges="1/2to2/2 2/2to2/1 2/1to2/0 2/0to1/0 1/0to1/1 1/1to2/1 -gneE20"/>
    </vehicle>
    <vehicle id="235" depart="470.00">
        <route edges="-gneE5 0/2to1/2 1/2to2/2 2/2to2/1 2/1to1/1 1/1to1/2 -gneE19"/>
    </vehicle>
    <vehicle id="240" depart="480.00">
        <route edges="gneE20 2/1to1/1 1/1to0/1 0/1to0/2 0/2to1/2 1/2to1/1 1/1to1/0"/>
    </vehicle>
    <vehicle id="241" depart="482.00">
        <route edges="gneE23 0/1to1/1 1/1to2/1 2/1to2/0 gneE11"/>
    </vehicle>
    <vehicle id="243" depart="486.00">
        <route edges="-gneE8 2/2to2/1 2/1to2/0"/>
    </vehicle>
    <vehicle id="245" depart="490.00">
        <route edges="2/2to2/1 2/1to1/1 1/1to0/1 0/1to0/2"/>
    </vehicle>
    <vehicle id="246" depart="492.00">
        <route edges="-gneE14 0/0to0/1 0/1to0/2 gneE7"/>
    </vehicle>
    <vehicle id="247" depart="494.00">
        <route edges="-gneE5 0/2to0/1 0/1to0/0 gneE14"/>
    </vehicle>
    <vehicle id="248" depart="496.00">
        <route edges="1/1to1/2 1/2to2/2 gneE9"/>
    </vehicle>
    <vehicle id="249" depart="498.00">
        <route edges="-gneE8 2/2to2/1 2/1to1/1 1/1to0/1 -gneE23"/>
    </vehicle>
    <vehicle id="251" depart="502.00">
        <route edges="-gneE5 0/2to1/2 1/2to1/1 1/1to1/0 -gneE22"/>
    </vehicle>
    <vehicle id="252" depart="504.00">
        <route edges="-gneE9 2/2to1/2 -gneE19"/>
    </vehicle>
    <vehicle id="253" depart="506.00">
        <route edges="gneE22 1/0to1/1 1/1to1/2 1/2to2/2 2/2to2/1 2/1to1/1 1/1to0/1 -gneE23"/>
    </vehicle>
    <vehicle id="256" depart="512.00">
        <route edges="gneE22 1/0to1/1 1/1to1/2 1/2to2/2 2/2to2/1"/>
    </vehicle>
    <vehicle id="258" depart="516.00">
        <route edges="-gneE14 0/0to0/1 0/1to0/2 0/2to1/2 1/2to2/2 2/2to2/1 2/1to1/1 1/1to1/2 -gneE19"/>
    </vehicle>
    <vehicle id="261" depart="522.00">
        <route edges="gneE20 2/1to1/1 1/1to0/1 -gneE23"/>
    </vehicle>
    <vehicle id="262" depart="524.00">
        <route edges="gneE19 1/2to1/1 1/1to1/0 1/0to0/0 0/0to0/1 0/1to1/1 1/1to2/1"/>
    </vehicle>
    <vehicle id="263" depart="526.00">
        <route edges="-gneE5 0/2to1/2 1/2to2/2 2/2to2/1 2/1to1/1 1/1to1/2 -gneE19"/>
    </vehicle>
    <vehicle id="265" depart="530.00">
        <route edges="gneE22 1/0to1/1 1/1to1/2 1/2to2/2 2/2to2/1 2/1to1/1 1/1to0/1 -gneE23"/>
    </vehicle>
    <vehicle id="266" depart="532.00">
        <route edges="-gneE8 2/2to1/2 1/2to0/2 gneE7"/>
    </vehicle>
    <vehicle id="267" depart="534.00">
        <route edges="-gneE7 0/2to0/1 -gneE23"/>
    </vehicle>
    <vehicle id="268" depart="536.00">
        <route edges="-gneE14 0/0to1/0 1/0to2/0 gneE12"/>
    </vehicle>
    <vehicle id="270" depart="540.00">
        <route edges="gneE20 2/1to1/1 1/1to0/1 -gneE23"/>
    </vehicle>
    <vehicle id="271" depart="542.00">
        <route edges="-gneE12 2/0to1/0 1/0to0/0 0/0to0/1 0/1to0/2 gneE7"/>
    </vehicle>
    <vehicle id="274" depart="548.00">
        <route edges="-gneE12 2/0to2/1 2/1to2/2 gneE8"/>
    </vehicle>
    <vehicle id="277" depart="554.00">
        <route edges="-gneE5 0/2to0/1 0/1to0/0 gneE14"/>
    </vehicle>
    <vehicle id="278" depart="556.00">
        <route edges="0/1to1/1 1/1to2/1 2/1to2/0 gneE11"/>
    </vehicle>
    <vehicle id="279" depart="558.00">
        <route edges="-gneE8 2/2to2/1 2/1to2/0 2/0to1/0 1/0to1/1 1/1to2/1 -gneE20"/>
    </vehicle>
    <vehicle id="282" depart="564.00">
        <route edges="gneE22 1/0to1/1 1/1to1/2 1/2to2/2 gneE9"/>
    </vehicle>
    <vehicle id="285" depart="570.00">
        <route edges="-gneE14 0/0to0/1 0/1to0/2 0/2to1/2 1/2to1/1 1/1to0/1 -gneE23"/>
    </vehicle>
    <vehicle id="286" depart="572.00">
        <route edges="gneE23 0/1to1/1 1/1to1/0 1/0to0/0 0/0to0/1 0/1to0/2 gneE7"/>
    </vehicle>
    <vehicle id="287" depart="574.00">
        <route edges="-gneE14 0/0to0/1 0/1to0/2 gneE7"/>
    </vehicle>
    <vehicle id="288" depart="576.00">
        <route edges="gneE20 2/1to1/1 1/1to0/1 0/1to0/2 0/2to1/2 1/2to1/1 1/1to1/0 -gneE22"/>
    </vehicle>
    <vehicle id="289" depart="578.00">
        <route edges="gneE20 2/1to1/1 1/1to0/1 0/1to0/2 gneE7"/>
    </vehicle>
    <vehicle id="290" depart="580.00">
        <route edges="-gneE5 0/2to1/2 1/2to2/2 2/2to2/1 2/1to2/0"/>
    </vehicle>
    <vehicle id="291" depart="582.00">
        <route edges="gneE19 1/2to0/2 gneE5"/>
    </vehicle>
    <vehicle id="292" depart="584.00">
        <route edges="gneE20 2/1to1/1 1/1to0/1 0/1to0/2 0/2to1/2 1/2to1/1 1/1to1/0 1/0to0/0"/>
    </vehicle>
    <vehicle id="294" depart="588.00">
        <route edges="gneE23 0/1to1/1 1/1to2/1 2/1to2/0 gneE11"/>
    </vehicle>
    <vehicle id="295" depart="590.00">
        <route edges="-gneE8 2/2to2/1 2/1to2/0 gneE11"/>
    </vehicle>
    <vehicle id="296" depart="592.00">
        <route edges="-gneE8 2/2to2/1 2/1to2/0 gneE11"/>
    </vehicle>
    <vehicle id="297" depart="594.00">
        <route edges="gneE22 1/0to1/1 1/1to2/1 2/1to2/0 2/0to1/0 1/0to0/0 0/0to0/1 0/1to0/2 gneE7"/>
    </vehicle>
    <vehicle id="298" depart="596.00">
        <route edges="0/1to0/0 gneE14"/>
    </vehicle>
    <vehicle id="301" depart="602.00">
        <route edges="gneE22 1/0to1/1 1/1to2/1 2/1to2/0 2/0to1/0 1/0to0/0 0/0to0/1 0/1to1/1"/>
    </vehicle>
    <vehicle id="302" depart="604.00">
        <route edges="-gneE8 2/2to2/1 2/1to2/0 2/0to1/0 1/0to1/1 1/1to2/1 -gneE20"/>
    </vehicle>
    <vehicle id="303" depart="606.00">
        <route edges="1/1to1/2 1/2to2/2 2/2to2/1 2/1to1/1 1/1to0/1 0/1to0/2 0/2to1/2 1/2to1/1 1/1to1/0 -gneE22"/>
    </vehicle>
    <vehicle id="304" depart="608.00">
        <route edges="-gneE14 0/0to0/1 0/1to1/1 1/1to2/1 -gneE20"/>
    </vehicle>
    <vehicle id="305" depart="610.00">
        <route edges="0/1to0/2 0/2to1/2 1/2to2/2 gneE9"/>
    </vehicle>
    <vehicle id="307" depart="614.00">
        <route edges="-gneE14 0/0to0/1 0/1to0/2 0/2to1/2 1/2to2/2 2/2to2/1"/>
    </vehicle>
    <vehicle id="309" depart="618.00">
        <route edges="gneE19 1/2to1/1 1/1to0/1 0/1to0/2 0/2to1/2 1/2to2/2 2/2to2/1 2/1to2/0 gneE11"/>
    </vehicle>
    <vehicle id="310" depart="620.00">
        <route edges="-gneE11 2/0to2/1 2/1to2/2 gneE9"/>
    </vehicle>
    <vehicle id="312" depart="624.00">
        <route edges="gneE20 2/1to1/1 1/1to0/1 0/1to0/2 0/2to1/2 1/2to1/1 1/1to1/0 1/0to0/0 gneE13"/>
    </vehicle>
    <vehicle id="314" depart="628.00">
        <route edges="-gneE7 0/2to0/1 0/1to0/0 gneE13"/>
    </vehicle>
    <vehicle id="315" depart="630.00">
        <route edges="-gneE14 0/0to0/1 0/1to0/2 gneE7"/>
    </vehicle>
    <vehicle id="316" depart="632.00">
        <route edges="gneE20 2/1to1/1 1/1to1/2 -gneE19"/>
    </vehicle>
    <vehicle id="317" depart="634.00">
        <route edges="gneE20 2/1to1/1 1/1to0/1 -gneE23"/>
    </vehicle>
    <vehicle id="318" depart="636.00">
        <route edges="-gneE5 0/2to1/2 1/2to2/2 2/2to2/1 2/1to2/0 gneE11"/>
    </vehicle>
    <vehicle id="319" depart="638.00">
        <route edges="gneE19 1/2to1/1 1/1to0/1 0/1to0/2 0/2to1/2 1/2to2/2 gneE9"/>
    </vehicle>
    <vehicle id="320" depart="640.00">
        <route edges="-gneE12 2/0to1/0 1/0to0/0 0/0to0/1 0/1to0/2 0/2to1/2 1/2to1/1 1/1to0/1 -gneE23"/>
    </vehicle>
    <vehicle id="323" depart="646.00">
        <route edges="-gneE8 2/2to2/1 2/1to1/1 1/1to0/1 -gneE23"/>
    </vehicle>
    <vehicle id="325" depart="650.00">
        <route edges="-gneE11 2/0to2/1 2/1to2/2 gneE8"/>
    </vehicle>
    <vehicle id="327" depart="654.00">
        <route edges="-gneE14 0/0to0/1 0/1to0/2 gneE7"/>
    </vehicle>
    <vehicle id="329" depart="658.00">
        <route edges="-gneE8 2/2to2/1 2/1to2/0 2/0to1/0 1/0to1/1 1/1to2/1 -gneE20"/>
    </vehicle>
    <vehicle id="331" depart="662.00">
        <route edges="-gneE7 0/2to0/1 -gneE23"/>
    </vehicle>
    <vehicle id="333" depart="666.00">
        <route edges="-gneE12 2/0to1/0 1/0to0/0 0/0to0/1 0/1to0/2 gneE7"/>
    </vehicle>
    <vehicle id="335" depart="670.00">
        <route edges="-gneE12 2/0to1/0 1/0to0/0 0/0to0/1 0/1to1/1 1/1to1/0 -gneE22"/>
    </vehicle>
    <vehicle id="336" depart="672.00">
        <route edges="gneE22 1/0to1/1 1/1to2/1 2/1to2/0 2/0to1/0 1/0to0/0 0/0to0/1 0/1to0/2 gneE7"/>
    </vehicle>
    <vehicle id="337" depart="674.00">
        <route edges="-gneE5 0/2to1/2 1/2to1/1 1/1to1/0 -gneE22"/>
    </vehicle>
    <vehicle id="338" depart="676.00">
        <route edges="-gneE5 0/2to1/2 1/2to2/2 2/2to2/1 2/1to2/0 gneE11"/>
    </vehicle>
    <vehicle id="340" depart="680.00">
        <route edges="-gneE7 0/2to0/1 0/1to0/0 gneE13"/>
    </vehicle>
    <vehicle id="342" depart="684.00">
        <route edges="gneE22 1/0to1/1 1/1to1/2 1/2to2/2 gneE9"/>
    </vehicle>
    <vehicle id="343" depart="686.00">
        <route edges="-gneE11 2/0to2/1 2/1to2/2 gneE9"/>
    </vehicle>
    <vehicle id="346" depart="692.00">
        <route edges="gneE19 1/2to1/1 1/1to1/0 -gneE22"/>
    </vehicle>
    <vehicle id="347" depart="694.00">
        <route edges="-gneE14 0/0to1/0 1/0to2/0 gneE11"/>
    </vehicle>
    <vehicle id="348" depart="696.00">
        <route edges="gneE20 2/1to1/1 1/1to0/1 0/1to0/2 0/2to1/2 1/2to1/1 1/1to1/0 1/0to0/0 gneE13"/>
    </vehicle>
    <vehicle id="350" depart="700.00">
        <route edges="-gneE5 0/2to0/1 0/1to0/0 gneE14"/>
    </vehicle>
    <vehicle id="351" depart="702.00">
        <route edges="gneE22 1/0to1/1 1/1to1/2 1/2to2/2 2/2to2/1 2/1to1/1 1/1to0/1 -gneE23"/>
    </vehicle>
    <vehicle id="352" depart="704.00">
        <route edges="-gneE14 0/0to0/1 0/1to0/2 0/2to1/2 1/2to2/2 gneE9"/>
    </vehicle>
    <vehicle id="354" depart="708.00">
        <route edges="-gneE12 2/0to1/0 1/0to0/0 0/0to0/1 0/1to0/2 0/2to1/2 1/2to1/1 1/1to0/1 -gneE23"/>
    </vehicle>
    <vehicle id="356" depart="712.00">
        <route edges="gneE20 2/1to1/1 1/1to1/2 1/2to2/2 2/2to2/1 2/1to2/0 gneE11"/>
    </vehicle>
    <vehicle id="357" depart="714.00">
        <route edges="gneE22 1/0to1/1 1/1to2/1 2/1to2/0 2/0to1/0 1/0to0/0 0/0to0/1 0/1to0/2 gneE7"/>
    </vehicle>
    <vehicle id="358" depart="716.00">
        <route edges="gneE19 1/2to1/1 1/1to1/0 1/0to0/0 gneE13"/>
    </vehicle>
    <vehicle id="359" depart="718.00">
        <route edges="-gneE5 0/2to1/2 1/2to2/2 2/2to2/1 2/1to1/1 1/1to1/2 -gneE19"/>
    </vehicle>
    <vehicle id="360" depart="720.00">
        <route edges="gneE19 1/2to1/1 1/1to1/0 1/0to0/0"/>
    </vehicle>
    <vehicle id="364" depart="728.00">
        <route edges="0/0to0/1 0/1to0/2 gneE7"/>
    </vehicle>
    <vehicle id="365" depart="730.00">
        <route edges="-gneE14 0/0to0/1 0/1to0/2 0/2to1/2 1/2to2/2 gneE9"/>
    </vehicle>
    <vehicle id="368" depart="736.00">
        <route edges="-gneE5 0/2to1/2 1/2to2/2 gneE9"/>
    </vehicle>
    <vehicle id="370" depart="740.00">
        <route edges="-gneE14 0/0to0/1 0/1to0/2 0/2to1/2 1/2to1/1 1/1to0/1"/>
    </vehicle>
    <vehicle id="372" depart="744.00">
        <route edges="-gneE12 2/0to1/0 1/0to1/1 1/1to1/2 -gneE19"/>
    </vehicle>
    <vehicle id="374" depart="748.00">
        <route edges="-gneE5 0/2to1/2 1/2to1/1 1/1to1/0 -gneE22"/>
    </vehicle>
    <vehicle id="376" depart="752.00">
        <route edges="-gneE8 2/2to2/1 2/1to2/0 gneE11"/>
    </vehicle>
    <vehicle id="377" depart="754.00">
        <route edges="-gneE9 2/2to1/2 -gneE19"/>
    </vehicle>
    <vehicle id="379" depart="758.00">
        <route edges="gneE22 1/0to1/1 1/1to2/1 2/1to2/0 2/0to1/0 1/0to0/0 gneE13"/>
    </vehicle>
    <vehicle id="381" depart="762.00">
        <route edges="-gneE9 2/2to1/2 -gneE19"/>
    </vehicle>
    <vehicle id="383" depart="766.00">
        <route edges="gneE20 2/1to1/1 1/1to1/2 1/2to2/2 2/2to2/1 2/1to2/0 gneE11"/>
    </vehicle>
    <vehicle id="384" depart="768.00">
        <route edges="gneE22 1/0to1/1 1/1to2/1 -gneE20"/>
    </vehicle>
    <vehicle id="385" depart="770.00">
        <route edges="gneE23 0/1to1/1 1/1to1/0 -gneE22"/>
    </vehicle>
    <vehicle id="386" depart="772.00">
        <route edges="-gneE14 0/0to0/1 0/1to0/2 0/2to1/2 1/2to2/2 gneE9"/>
    </vehicle>